
#======================================================================
# CRYSTAL DATA
#----------------------------------------------------------------------
data_VESTA_phase_1

_chemical_name_common                  'isodistort-output10                   '
_cell_length_a                         5.800807
_cell_length_b                         35.035782
_cell_length_c                         16.019701
_cell_angle_alpha                      90.000000
_cell_angle_beta                       90.000000
_cell_angle_gamma                      90.000046
_cell_volume                           3255.776620
_space_group_name_H-M_alt              'P 1'
_space_group_IT_number                 1

loop_
_space_group_symop_operation_xyz
   'x, y, z'

loop_
   _atom_site_label
   _atom_site_occupancy
   _atom_site_fract_x
   _atom_site_fract_y
   _atom_site_fract_z
   _atom_site_adp_type
   _atom_site_U_iso_or_equiv
   _atom_site_type_symbol
   Pb1        1.0     0.213855     0.748560     0.140655    Uiso  ? Pb
   Pb2        1.0     0.780916     0.664842     0.142826    Uiso  ? Pb
   Pb3        1.0     0.283990     0.918990     0.131799    Uiso  ? Pb
   Pb4        1.0     0.783981     0.831017     0.131788    Uiso  ? Pb
   Pb5        1.0     0.280866     0.085156     0.142835    Uiso  ? Pb
   Pb6        1.0     0.784002     0.331015     0.131786    Uiso  ? Pb
   Pb7        1.0     0.213850     0.248560     0.140622    Uiso  ? Pb
   Pb8        1.0     0.713863     0.501441     0.140636    Uiso  ? Pb
   Pb9        1.0     0.284009     0.418985     0.131788    Uiso  ? Pb
   Pb10       1.0     0.713851     0.001440     0.140632    Uiso  ? Pb
   Pb11       1.0     0.280866     0.585163     0.142834    Uiso  ? Pb
   Pb12       1.0     0.780855     0.164845     0.142836    Uiso  ? Pb
   Pb13       1.0     0.213852     0.751440     0.388294    Uiso  ? Pb
   Pb14       1.0     0.784011     0.668989     0.397119    Uiso  ? Pb
   Pb15       1.0     0.280881     0.914848     0.386077    Uiso  ? Pb
   Pb16       1.0     0.780832     0.835157     0.386069    Uiso  ? Pb
   Pb17       1.0     0.283985     0.081014     0.397118    Uiso  ? Pb
   Pb18       1.0     0.780892     0.335161     0.386079    Uiso  ? Pb
   Pb19       1.0     0.213857     0.251440     0.388261    Uiso  ? Pb
   Pb20       1.0     0.713858     0.498559     0.388270    Uiso  ? Pb
   Pb21       1.0     0.280886     0.414841     0.386079    Uiso  ? Pb
   Pb22       1.0     0.713844    -0.001439     0.388275    Uiso  ? Pb
   Pb23       1.0     0.284002     0.581018     0.397130    Uiso  ? Pb
   Pb24       1.0     0.783989     0.168986     0.397118    Uiso  ? Pb
   Zr1        1.0     0.745330     0.750000     0.264472    Uiso  ? Zr
   Zr2        1.0     0.238709     0.667463     0.010788    Uiso  ? Zr
   Zr3        1.0     0.258482     0.667768     0.520859    Uiso  ? Zr
   Zr4        1.0     0.256004     0.666093     0.265551    Uiso  ? Zr
   Zr5        1.0     0.763153     0.747665     0.008619    Uiso  ? Zr
   Zr6        1.0     0.763061     0.752336     0.520340    Uiso  ? Zr
   Zr7        1.0     0.758467     0.917770     0.008057    Uiso  ? Zr
   Zr8        1.0     0.738641     0.917458     0.518107    Uiso  ? Zr
   Zr9        1.0     0.255990     0.833909     0.263351    Uiso  ? Zr
   Zr10       1.0     0.258454     0.832233     0.008069    Uiso  ? Zr
   Zr11       1.0     0.238600     0.832558     0.518059    Uiso  ? Zr
   Zr12       1.0     0.755993     0.916093     0.263358    Uiso  ? Zr
   Zr13       1.0     0.755989     0.083909     0.265558    Uiso  ? Zr
   Zr14       1.0     0.258472     0.332235     0.008054    Uiso  ? Zr
   Zr15       1.0     0.238690     0.332543     0.518093    Uiso  ? Zr
   Zr16       1.0     0.255999     0.333909     0.263353    Uiso  ? Zr
   Zr17       1.0     0.738637     0.082547     0.010828    Uiso  ? Zr
   Zr18       1.0     0.758456     0.082233     0.520852    Uiso  ? Zr
   Zr19       1.0     0.763077     0.247665     0.008587    Uiso  ? Zr
   Zr20       1.0     0.763138     0.252336     0.520307    Uiso  ? Zr
   Zr21       1.0     0.245334     0.500001     0.264449    Uiso  ? Zr
   Zr22       1.0     0.263113     0.502337     0.008598    Uiso  ? Zr
   Zr23       1.0     0.263119     0.497664     0.520298    Uiso  ? Zr
   Zr24       1.0     0.745330     0.250002     0.264450    Uiso  ? Zr
   Zr25       1.0     0.756006     0.416093     0.263358    Uiso  ? Zr
   Zr26       1.0     0.263098     0.002336     0.008579    Uiso  ? Zr
   Zr27       1.0     0.263100    -0.002334     0.520318    Uiso  ? Zr
   Zr28       1.0     0.245326     0.000002     0.264450    Uiso  ? Zr
   Zr29       1.0     0.758481     0.417768     0.008063    Uiso  ? Zr
   Zr30       1.0     0.738678     0.417452     0.518101    Uiso  ? Zr
   Zr31       1.0     0.738667     0.582553     0.010835    Uiso  ? Zr
   Zr32       1.0     0.758470     0.582235     0.520846    Uiso  ? Zr
   Zr33       1.0     0.255995     0.166093     0.265553    Uiso  ? Zr
   Zr34       1.0     0.238622     0.167448     0.010822    Uiso  ? Zr
   Zr35       1.0     0.258464     0.167770     0.520844    Uiso  ? Zr
   Zr36       1.0     0.756002     0.583909     0.265559    Uiso  ? Zr
   O1         1.0     0.522953     0.704598     0.255344    Uiso  ? O
   O2         1.0     0.507357     0.706455     0.017577    Uiso  ? O
   O3         1.0     0.520178     0.708303     0.517302    Uiso  ? O
   O4         1.0     0.984841     0.871710     0.014958    Uiso  ? O
   O5         1.0     0.966176     0.871793     0.518855    Uiso  ? O
   O6         1.0     0.946595     0.866837     0.254050    Uiso  ? O
   O7         1.0     0.522091     0.038846     0.245128    Uiso  ? O
   O8         1.0     0.484857     0.378288     0.014929    Uiso  ? O
   O9         1.0     0.466203     0.378213     0.518852    Uiso  ? O
   O10        1.0     0.446602     0.383167     0.254053    Uiso  ? O
   O11        1.0     0.505635     0.041367     0.051408    Uiso  ? O
   O12        1.0     0.518511     0.038993     0.524004    Uiso  ? O
   O13        1.0     0.005631     0.208632     0.051409    Uiso  ? O
   O14        1.0     0.018536     0.211012     0.523998    Uiso  ? O
   O15        1.0     0.022942     0.545402     0.255322    Uiso  ? O
   O16        1.0     0.007324     0.543543     0.017643    Uiso  ? O
   O17        1.0     0.020264     0.541715     0.517225    Uiso  ? O
   O18        1.0     0.022102     0.211155     0.245129    Uiso  ? O
   O19        1.0     0.446598     0.883168     0.254046    Uiso  ? O
   O20        1.0     0.505646     0.541374     0.051422    Uiso  ? O
   O21        1.0     0.518533     0.538989     0.523981    Uiso  ? O
   O22        1.0     0.522106     0.538848     0.245128    Uiso  ? O
   O23        1.0     0.484881     0.878288     0.014918    Uiso  ? O
   O24        1.0     0.466128     0.878228     0.518863    Uiso  ? O
   O25        1.0     0.007309     0.043542     0.017636    Uiso  ? O
   O26        1.0     0.020223     0.041708     0.517249    Uiso  ? O
   O27        1.0     0.022105     0.711157     0.245147    Uiso  ? O
   O28        1.0     0.005687     0.708634     0.051402    Uiso  ? O
   O29        1.0     0.018496     0.711009     0.524025    Uiso  ? O
   O30        1.0     0.022937     0.045402     0.255330    Uiso  ? O
   O31        1.0     0.522949     0.204599     0.255332    Uiso  ? O
   O32        1.0     0.507308     0.206457     0.017640    Uiso  ? O
   O33        1.0     0.520278     0.208285     0.517241    Uiso  ? O
   O34        1.0     0.984872     0.371714     0.014914    Uiso  ? O
   O35        1.0     0.966185     0.371783     0.518866    Uiso  ? O
   O36        1.0     0.946596     0.366833     0.254049    Uiso  ? O
   O37        1.0     0.522934     0.795402     0.273589    Uiso  ? O
   O38        1.0     0.466224     0.621796     0.010055    Uiso  ? O
   O39        1.0     0.484845     0.621712     0.513970    Uiso  ? O
   O40        1.0     0.446597     0.616835     0.274856    Uiso  ? O
   O41        1.0     0.520298     0.791721     0.011705    Uiso  ? O
   O42        1.0     0.507285     0.793542     0.511237    Uiso  ? O
   O43        1.0     0.020217     0.958296     0.011630    Uiso  ? O
   O44        1.0     0.007320     0.956456     0.511299    Uiso  ? O
   O45        1.0     0.022094     0.788848     0.283792    Uiso  ? O
   O46        1.0     0.018545     0.788989     0.004930    Uiso  ? O
   O47        1.0     0.005607     0.791371     0.477491    Uiso  ? O
   O48        1.0     0.022946     0.954598     0.273568    Uiso  ? O
   O49        1.0     0.446590     0.116834     0.274863    Uiso  ? O
   O50        1.0     0.520201     0.291704     0.011645    Uiso  ? O
   O51        1.0     0.507339     0.293543     0.511298    Uiso  ? O
   O52        1.0     0.522941     0.295402     0.273577    Uiso  ? O
   O53        1.0     0.466151     0.121781     0.010045    Uiso  ? O
   O54        1.0     0.484869     0.121713     0.513982    Uiso  ? O
   O55        1.0     0.018510     0.288991     0.004904    Uiso  ? O
   O56        1.0     0.005663     0.291369     0.477497    Uiso  ? O
   O57        1.0     0.022951     0.454599     0.273576    Uiso  ? O
   O58        1.0     0.020253     0.458290     0.011652    Uiso  ? O
   O59        1.0     0.007338     0.456455     0.511296    Uiso  ? O
   O60        1.0     0.022096     0.288847     0.283774    Uiso  ? O
   O61        1.0     0.522106     0.461155     0.283773    Uiso  ? O
   O62        1.0     0.518510     0.961009     0.004887    Uiso  ? O
   O63        1.0     0.505647     0.958636     0.477511    Uiso  ? O
   O64        1.0     0.522093     0.961156     0.283773    Uiso  ? O
   O65        1.0     0.518531     0.461012     0.004911    Uiso  ? O
   O66        1.0     0.505662     0.458630     0.477498    Uiso  ? O
   O67        1.0     0.966175     0.628225     0.010047    Uiso  ? O
   O68        1.0     0.984886     0.628285     0.514012    Uiso  ? O
   O69        1.0     0.946599     0.133167     0.274859    Uiso  ? O
   O70        1.0     0.966168     0.128215     0.010058    Uiso  ? O
   O71        1.0     0.984852     0.128290     0.513967    Uiso  ? O
   O72        1.0     0.946597     0.633170     0.274860    Uiso  ? O
   O73        1.0     0.788160     0.761682     0.137651    Uiso  ? O
   O74        1.0     0.242444     0.656838     0.138384    Uiso  ? O
   O75        1.0     0.712957     0.922482     0.134916    Uiso  ? O
   O76        1.0     0.212977     0.827523     0.134926    Uiso  ? O
   O77        1.0     0.742424     0.093174     0.138400    Uiso  ? O
   O78        1.0     0.212975     0.327525     0.134914    Uiso  ? O
   O79        1.0     0.788134     0.261686     0.137629    Uiso  ? O
   O80        1.0     0.288158     0.488314     0.137632    Uiso  ? O
   O81        1.0     0.712985     0.422475     0.134919    Uiso  ? O
   O82        1.0     0.288135     0.988314     0.137625    Uiso  ? O
   O83        1.0     0.742477     0.593180     0.138404    Uiso  ? O
   O84        1.0     0.242460     0.156828     0.138399    Uiso  ? O
   O85        1.0     0.788129     0.738312     0.391294    Uiso  ? O
   O86        1.0     0.212971     0.672477     0.393999    Uiso  ? O
   O87        1.0     0.742423     0.906835     0.390519    Uiso  ? O
   O88        1.0     0.242454     0.843182     0.390499    Uiso  ? O
   O89        1.0     0.712962     0.077521     0.393993    Uiso  ? O
   O90        1.0     0.242440     0.343172     0.390514    Uiso  ? O
   O91        1.0     0.788157     0.238316     0.391270    Uiso  ? O
   O92        1.0     0.288156     0.511684     0.391266    Uiso  ? O
   O93        1.0     0.742476     0.406830     0.390518    Uiso  ? O
   O94        1.0     0.288131     0.011685     0.391274    Uiso  ? O
   O95        1.0     0.712991     0.577528     0.393988    Uiso  ? O
   O96        1.0     0.212973     0.172479     0.393987    Uiso  ? O
   Pt1        1.0     0.023879     0.047484     0.647357    Uiso  ? Pt
   Pt2        1.0    -0.000026     0.127509     0.646929    Uiso  ? Pt
   Pt3        1.0    -0.001541     0.208762     0.652851    Uiso  ? Pt
   Pt4        1.0     0.005549     0.288650     0.662459    Uiso  ? Pt
   Pt5        1.0     0.988678     0.369861     0.647043    Uiso  ? Pt
   Pt6        1.0     0.980142     0.461478     0.644053    Uiso  ? Pt
   Pt7        1.0     0.023704     0.547437     0.647337    Uiso  ? Pt
   Pt8        1.0    -0.000218     0.627537     0.646972    Uiso  ? Pt
   Pt9        1.0    -0.001714     0.708732     0.652869    Uiso  ? Pt
   Pt10       1.0     0.005382     0.788678     0.662387    Uiso  ? Pt
   Pt11       1.0     0.988351     0.869833     0.647054    Uiso  ? Pt
   Pt12       1.0    -0.019721     0.961452     0.644052    Uiso  ? Pt
   Pt13       1.0     0.498405     0.041225     0.652853    Uiso  ? Pt
   Pt14       1.0     0.499842     0.122492     0.646938    Uiso  ? Pt
   Pt15       1.0     0.523782     0.202555     0.647349    Uiso  ? Pt
   Pt16       1.0     0.480198     0.288512     0.644062    Uiso  ? Pt
   Pt17       1.0     0.488468     0.380138     0.647036    Uiso  ? Pt
   Pt18       1.0     0.505535     0.461348     0.662447    Uiso  ? Pt
   Pt19       1.0     0.498408     0.541231     0.652833    Uiso  ? Pt
   Pt20       1.0     0.499980     0.622465     0.646960    Uiso  ? Pt
   Pt21       1.0     0.523902     0.702474     0.647418    Uiso  ? Pt
   Pt22       1.0     0.480286     0.788682     0.643993    Uiso  ? Pt
   Pt23       1.0     0.488751     0.880069     0.647044    Uiso  ? Pt
   Pt24       1.0     0.505561     0.961330     0.662483    Uiso  ? Pt
   Pt25       1.0    -0.019711     0.038595     0.884878    Uiso  ? Pt
   Pt26       1.0     0.988456     0.130122     0.881865    Uiso  ? Pt
   Pt27       1.0     0.005465     0.211328     0.866478    Uiso  ? Pt
   Pt28       1.0    -0.001675     0.291245     0.876058    Uiso  ? Pt
   Pt29       1.0    -0.000184     0.372468     0.881942    Uiso  ? Pt
   Pt30       1.0     0.023752     0.452540     0.881539    Uiso  ? Pt
   Pt31       1.0    -0.019841     0.538577     0.884882    Uiso  ? Pt
   Pt32       1.0     0.988780     0.630091     0.881876    Uiso  ? Pt
   Pt33       1.0     0.005634     0.711356     0.866402    Uiso  ? Pt
   Pt34       1.0    -0.001503     0.791212     0.876075    Uiso  ? Pt
   Pt35       1.0     0.000007     0.872496     0.881986    Uiso  ? Pt
   Pt36       1.0     0.023926     0.952496     0.881521    Uiso  ? Pt
   Pt37       1.0     0.505480     0.038669     0.866464    Uiso  ? Pt
   Pt38       1.0     0.488652     0.119880     0.881860    Uiso  ? Pt
   Pt39       1.0     0.480241     0.211389     0.884888    Uiso  ? Pt
   Pt40       1.0     0.523857     0.297499     0.881532    Uiso  ? Pt
   Pt41       1.0     0.499946     0.377536     0.881951    Uiso  ? Pt
   Pt42       1.0     0.498376     0.458744     0.876061    Uiso  ? Pt
   Pt43       1.0     0.505448     0.538653     0.866504    Uiso  ? Pt
   Pt44       1.0     0.488365     0.619811     0.881867    Uiso  ? Pt
   Pt45       1.0     0.480163     0.711555     0.884817    Uiso  ? Pt
   Pt46       1.0     0.523736     0.797418     0.881601    Uiso  ? Pt
   Pt47       1.0     0.499814     0.877507     0.881976    Uiso  ? Pt
   Pt48       1.0     0.498378     0.958751     0.876042    Uiso  ? Pt
   Pt49       1.0     0.230186     0.000003     0.764467    Uiso  ? Pt
   Pt50       1.0     0.235661     0.083611     0.769087    Uiso  ? Pt
   Pt51       1.0     0.257059     0.164828     0.764980    Uiso  ? Pt
   Pt52       1.0     0.273310     0.249990     0.764513    Uiso  ? Pt
   Pt53       1.0     0.257082     0.335174     0.763924    Uiso  ? Pt
   Pt54       1.0     0.235610     0.416406     0.759816    Uiso  ? Pt
   Pt55       1.0     0.230193     0.500004     0.764470    Uiso  ? Pt
   Pt56       1.0     0.235631     0.583583     0.769035    Uiso  ? Pt
   Pt57       1.0     0.257110     0.664815     0.765020    Uiso  ? Pt
   Pt58       1.0     0.273312     0.750030     0.764317    Uiso  ? Pt
   Pt59       1.0     0.257029     0.835161     0.763965    Uiso  ? Pt
   Pt60       1.0     0.235643     0.916377     0.759768    Uiso  ? Pt
   Pt61       1.0     0.773360     0.000007     0.764483    Uiso  ? Pt
   Pt62       1.0     0.757062     0.085172     0.764955    Uiso  ? Pt
   Pt63       1.0     0.735671     0.166392     0.769045    Uiso  ? Pt
   Pt64       1.0     0.730188     0.249992     0.764490    Uiso  ? Pt
   Pt65       1.0     0.735604     0.333598     0.759776    Uiso  ? Pt
   Pt66       1.0     0.757078     0.414826     0.763895    Uiso  ? Pt
   Pt67       1.0     0.773255     0.500008     0.764488    Uiso  ? Pt
   Pt68       1.0     0.757052     0.585163     0.764986    Uiso  ? Pt
   Pt69       1.0     0.735574     0.666391     0.769199    Uiso  ? Pt
   Pt70       1.0     0.730188     0.750021     0.764382    Uiso  ? Pt
   Pt71       1.0     0.735704     0.833599     0.759932    Uiso  ? Pt
   Pt72       1.0     0.757086     0.914818     0.763929    Uiso  ? Pt
