
#======================================================================
# CRYSTAL DATA
#----------------------------------------------------------------------
data_VESTA_phase_1

_chemical_name_common                  'findsym-output                        '
_cell_length_a                         16.420637
_cell_length_b                         16.420872
_cell_length_c                         16.042980
_cell_angle_alpha                      90.000000
_cell_angle_beta                       90.000000
_cell_angle_gamma                      90.110001
_cell_volume                           4325.840076
_space_group_name_H-M_alt              'P 1'
_space_group_IT_number                 1

loop_
_space_group_symop_operation_xyz
   'x, y, z'

loop_
   _atom_site_label
   _atom_site_occupancy
   _atom_site_fract_x
   _atom_site_fract_y
   _atom_site_fract_z
   _atom_site_adp_type
   _atom_site_U_iso_or_equiv
   _atom_site_type_symbol
   Pb1        1.0     0.366330     0.003855     0.374497    Uiso  ? Pb
   Pb2        1.0     0.366330     0.503855     0.374497    Uiso  ? Pb
   Pb3        1.0     0.866330     0.003855     0.374497    Uiso  ? Pb
   Pb4        1.0     0.866330     0.503855     0.374497    Uiso  ? Pb
   Pb5        1.0     0.371408     0.251102     0.122531    Uiso  ? Pb
   Pb6        1.0     0.371408     0.751102     0.122531    Uiso  ? Pb
   Pb7        1.0     0.871408     0.251102     0.122531    Uiso  ? Pb
   Pb8        1.0     0.871408     0.751102     0.122531    Uiso  ? Pb
   Pb9        1.0     0.371549     0.258382     0.377221    Uiso  ? Pb
   Pb10       1.0     0.371549     0.758382     0.377221    Uiso  ? Pb
   Pb11       1.0     0.871549     0.258382     0.377221    Uiso  ? Pb
   Pb12       1.0     0.871549     0.758382     0.377221    Uiso  ? Pb
   Pb13       1.0     0.372837     0.003760     0.121614    Uiso  ? Pb
   Pb14       1.0     0.372837     0.503760     0.121614    Uiso  ? Pb
   Pb15       1.0     0.872837     0.003760     0.121614    Uiso  ? Pb
   Pb16       1.0     0.872837     0.503760     0.121614    Uiso  ? Pb
   Pb17       1.0     0.121408     0.001102     0.122531    Uiso  ? Pb
   Pb18       1.0     0.121408     0.501102     0.122531    Uiso  ? Pb
   Pb19       1.0     0.621408     0.001102     0.122531    Uiso  ? Pb
   Pb20       1.0     0.621408     0.501102     0.122531    Uiso  ? Pb
   Pb21       1.0     0.116330     0.253855     0.374497    Uiso  ? Pb
   Pb22       1.0     0.116330     0.753855     0.374497    Uiso  ? Pb
   Pb23       1.0     0.616330     0.253855     0.374497    Uiso  ? Pb
   Pb24       1.0     0.616330     0.753855     0.374497    Uiso  ? Pb
   Pb25       1.0     0.121549     0.008382     0.377221    Uiso  ? Pb
   Pb26       1.0     0.121549     0.508382     0.377221    Uiso  ? Pb
   Pb27       1.0     0.621549     0.008382     0.377221    Uiso  ? Pb
   Pb28       1.0     0.621549     0.508382     0.377221    Uiso  ? Pb
   Pb29       1.0     0.122837     0.253760     0.121614    Uiso  ? Pb
   Pb30       1.0     0.122837     0.753760     0.121614    Uiso  ? Pb
   Pb31       1.0     0.622837     0.253760     0.121614    Uiso  ? Pb
   Pb32       1.0     0.622837     0.753760     0.121614    Uiso  ? Pb
   Zr1        1.0     0.499825     0.123023     0.254533    Uiso  ? Zr
   Zr2        1.0     0.499825     0.623023     0.254533    Uiso  ? Zr
   Zr3        1.0     0.999825     0.123023     0.254533    Uiso  ? Zr
   Zr4        1.0     0.999825     0.623023     0.254533    Uiso  ? Zr
   Zr5        1.0     0.496899     0.369460     0.999380    Uiso  ? Zr
   Zr6        1.0     0.496899     0.869460     0.999380    Uiso  ? Zr
   Zr7        1.0     0.996899     0.369460     0.999380    Uiso  ? Zr
   Zr8        1.0     0.996899     0.869460     0.999380    Uiso  ? Zr
   Zr9        1.0     0.501035     0.371935     0.509922    Uiso  ? Zr
   Zr10       1.0     0.501035     0.871935     0.509922    Uiso  ? Zr
   Zr11       1.0     0.001035     0.371935     0.509922    Uiso  ? Zr
   Zr12       1.0     0.001035     0.871935     0.509922    Uiso  ? Zr
   Zr13       1.0     0.501213     0.374581     0.253866    Uiso  ? Zr
   Zr14       1.0     0.501213     0.874581     0.253866    Uiso  ? Zr
   Zr15       1.0     0.001213     0.374581     0.253866    Uiso  ? Zr
   Zr16       1.0     0.001213     0.874581     0.253866    Uiso  ? Zr
   Zr17       1.0     0.505164     0.127089     0.001391    Uiso  ? Zr
   Zr18       1.0     0.505164     0.627089     0.001391    Uiso  ? Zr
   Zr19       1.0     0.005164     0.127089     0.001391    Uiso  ? Zr
   Zr20       1.0     0.005164     0.627089     0.001391    Uiso  ? Zr
   Zr21       1.0     0.502084     0.123670     0.510295    Uiso  ? Zr
   Zr22       1.0     0.502084     0.623670     0.510295    Uiso  ? Zr
   Zr23       1.0     0.002084     0.123670     0.510295    Uiso  ? Zr
   Zr24       1.0     0.002084     0.623670     0.510295    Uiso  ? Zr
   Zr25       1.0     0.246899     0.119460     0.999380    Uiso  ? Zr
   Zr26       1.0     0.246899     0.619460     0.999380    Uiso  ? Zr
   Zr27       1.0     0.746899     0.119460     0.999380    Uiso  ? Zr
   Zr28       1.0     0.746899     0.619460     0.999380    Uiso  ? Zr
   Zr29       1.0     0.251035     0.121935     0.509922    Uiso  ? Zr
   Zr30       1.0     0.251035     0.621935     0.509922    Uiso  ? Zr
   Zr31       1.0     0.751035     0.121935     0.509922    Uiso  ? Zr
   Zr32       1.0     0.751035     0.621935     0.509922    Uiso  ? Zr
   Zr33       1.0     0.249825     0.373023     0.254533    Uiso  ? Zr
   Zr34       1.0     0.249825     0.873023     0.254533    Uiso  ? Zr
   Zr35       1.0     0.749825     0.373023     0.254533    Uiso  ? Zr
   Zr36       1.0     0.749825     0.873023     0.254533    Uiso  ? Zr
   Zr37       1.0     0.251213     0.124581     0.253866    Uiso  ? Zr
   Zr38       1.0     0.251213     0.624581     0.253866    Uiso  ? Zr
   Zr39       1.0     0.751213     0.124581     0.253866    Uiso  ? Zr
   Zr40       1.0     0.751213     0.624581     0.253866    Uiso  ? Zr
   Zr41       1.0     0.255164     0.377089     0.001391    Uiso  ? Zr
   Zr42       1.0     0.255164     0.877089     0.001391    Uiso  ? Zr
   Zr43       1.0     0.755164     0.377089     0.001391    Uiso  ? Zr
   Zr44       1.0     0.755164     0.877089     0.001391    Uiso  ? Zr
   Zr45       1.0     0.252084     0.373670     0.510295    Uiso  ? Zr
   Zr46       1.0     0.252084     0.873670     0.510295    Uiso  ? Zr
   Zr47       1.0     0.752084     0.373670     0.510295    Uiso  ? Zr
   Zr48       1.0     0.752084     0.873670     0.510295    Uiso  ? Zr
   O1         1.0     0.244194     0.103643     0.384636    Uiso  ? O
   O2         1.0     0.244194     0.603643     0.384636    Uiso  ? O
   O3         1.0     0.744194     0.103643     0.384636    Uiso  ? O
   O4         1.0     0.744194     0.603643     0.384636    Uiso  ? O
   O5         1.0     0.239363     0.357105     0.129982    Uiso  ? O
   O6         1.0     0.239363     0.857105     0.129982    Uiso  ? O
   O7         1.0     0.739363     0.357105     0.129982    Uiso  ? O
   O8         1.0     0.739363     0.857105     0.129982    Uiso  ? O
   O9         1.0     0.234900     0.246598     0.275216    Uiso  ? O
   O10        1.0     0.234900     0.746598     0.275216    Uiso  ? O
   O11        1.0     0.734900     0.246598     0.275216    Uiso  ? O
   O12        1.0     0.734900     0.746598     0.275216    Uiso  ? O
   O13        1.0     0.250722     0.497576     0.036251    Uiso  ? O
   O14        1.0     0.250722     0.997576     0.036251    Uiso  ? O
   O15        1.0     0.750722     0.497576     0.036251    Uiso  ? O
   O16        1.0     0.750722     0.997576     0.036251    Uiso  ? O
   O17        1.0     0.238992     0.497554     0.516544    Uiso  ? O
   O18        1.0     0.238992     0.997554     0.516544    Uiso  ? O
   O19        1.0     0.738992     0.497554     0.516544    Uiso  ? O
   O20        1.0     0.738992     0.997554     0.516544    Uiso  ? O
   O21        1.0     0.494194     0.353643     0.384636    Uiso  ? O
   O22        1.0     0.494194     0.853643     0.384636    Uiso  ? O
   O23        1.0     0.994194     0.353643     0.384636    Uiso  ? O
   O24        1.0     0.994194     0.853643     0.384636    Uiso  ? O
   O25        1.0     0.489363     0.107105     0.129982    Uiso  ? O
   O26        1.0     0.489363     0.607105     0.129982    Uiso  ? O
   O27        1.0     0.989363     0.107105     0.129982    Uiso  ? O
   O28        1.0     0.989363     0.607105     0.129982    Uiso  ? O
   O29        1.0     0.500722     0.247576     0.036251    Uiso  ? O
   O30        1.0     0.500722     0.747576     0.036251    Uiso  ? O
   O31        1.0     0.000722     0.247576     0.036251    Uiso  ? O
   O32        1.0     0.000722     0.747576     0.036251    Uiso  ? O
   O33        1.0     0.488992     0.247554     0.516544    Uiso  ? O
   O34        1.0     0.488992     0.747554     0.516544    Uiso  ? O
   O35        1.0     0.988992     0.247554     0.516544    Uiso  ? O
   O36        1.0     0.988992     0.747554     0.516544    Uiso  ? O
   O37        1.0     0.484900     0.496598     0.275216    Uiso  ? O
   O38        1.0     0.484900     0.996598     0.275216    Uiso  ? O
   O39        1.0     0.984900     0.496598     0.275216    Uiso  ? O
   O40        1.0     0.984900     0.996598     0.275216    Uiso  ? O
   O41        1.0     0.267862     0.133378     0.129534    Uiso  ? O
   O42        1.0     0.267862     0.633378     0.129534    Uiso  ? O
   O43        1.0     0.767862     0.133378     0.129534    Uiso  ? O
   O44        1.0     0.767862     0.633378     0.129534    Uiso  ? O
   O45        1.0     0.268833     0.380857     0.384968    Uiso  ? O
   O46        1.0     0.268833     0.880857     0.384968    Uiso  ? O
   O47        1.0     0.768832     0.380857     0.384968    Uiso  ? O
   O48        1.0     0.768832     0.880857     0.384968    Uiso  ? O
   O49        1.0     0.253869     0.247298     0.001571    Uiso  ? O
   O50        1.0     0.253869     0.747298     0.001571    Uiso  ? O
   O51        1.0     0.753869     0.247298     0.001571    Uiso  ? O
   O52        1.0     0.753869     0.747298     0.001571    Uiso  ? O
   O53        1.0     0.260640     0.247825     0.505008    Uiso  ? O
   O54        1.0     0.260640     0.747825     0.505008    Uiso  ? O
   O55        1.0     0.760639     0.247825     0.505008    Uiso  ? O
   O56        1.0     0.760639     0.747825     0.505008    Uiso  ? O
   O57        1.0     0.278315     0.496359     0.250228    Uiso  ? O
   O58        1.0     0.278315     0.996359     0.250228    Uiso  ? O
   O59        1.0     0.778315     0.496359     0.250228    Uiso  ? O
   O60        1.0     0.778315     0.996359     0.250228    Uiso  ? O
   O61        1.0     0.018832     0.130857     0.384968    Uiso  ? O
   O62        1.0     0.018832     0.630857     0.384968    Uiso  ? O
   O63        1.0     0.518832     0.130857     0.384968    Uiso  ? O
   O64        1.0     0.518832     0.630857     0.384968    Uiso  ? O
   O65        1.0     0.017862     0.383378     0.129534    Uiso  ? O
   O66        1.0     0.017862     0.883378     0.129534    Uiso  ? O
   O67        1.0     0.517862     0.383378     0.129534    Uiso  ? O
   O68        1.0     0.517862     0.883378     0.129534    Uiso  ? O
   O69        1.0     0.003869     0.497298     0.001571    Uiso  ? O
   O70        1.0     0.003869     0.997298     0.001571    Uiso  ? O
   O71        1.0     0.503869     0.497298     0.001571    Uiso  ? O
   O72        1.0     0.503869     0.997298     0.001571    Uiso  ? O
   O73        1.0     0.010640     0.497825     0.505008    Uiso  ? O
   O74        1.0     0.010640     0.997825     0.505008    Uiso  ? O
   O75        1.0     0.510639     0.497825     0.505008    Uiso  ? O
   O76        1.0     0.510639     0.997825     0.505008    Uiso  ? O
   O77        1.0     0.028315     0.246359     0.250228    Uiso  ? O
   O78        1.0     0.028315     0.746359     0.250228    Uiso  ? O
   O79        1.0     0.528315     0.246359     0.250228    Uiso  ? O
   O80        1.0     0.528315     0.746359     0.250228    Uiso  ? O
   O81        1.0     0.377500     0.138900     0.275996    Uiso  ? O
   O82        1.0     0.377500     0.638901     0.275996    Uiso  ? O
   O83        1.0     0.877500     0.138900     0.275996    Uiso  ? O
   O84        1.0     0.877500     0.638901     0.275996    Uiso  ? O
   O85        1.0     0.376580     0.373450     0.038031    Uiso  ? O
   O86        1.0     0.376580     0.873450     0.038031    Uiso  ? O
   O87        1.0     0.876580     0.373450     0.038031    Uiso  ? O
   O88        1.0     0.876580     0.873450     0.038031    Uiso  ? O
   O89        1.0     0.376766     0.380811     0.513418    Uiso  ? O
   O90        1.0     0.376766     0.880811     0.513418    Uiso  ? O
   O91        1.0     0.876766     0.380811     0.513418    Uiso  ? O
   O92        1.0     0.876766     0.880811     0.513418    Uiso  ? O
   O93        1.0     0.377770     0.345928     0.250931    Uiso  ? O
   O94        1.0     0.377770     0.845928     0.250931    Uiso  ? O
   O95        1.0     0.877770     0.345928     0.250931    Uiso  ? O
   O96        1.0     0.877770     0.845928     0.250931    Uiso  ? O
   O97        1.0     0.376521     0.118429     0.000329    Uiso  ? O
   O98        1.0     0.376521     0.618429     0.000329    Uiso  ? O
   O99        1.0     0.876521     0.118429     0.000329    Uiso  ? O
   O100       1.0     0.876521     0.618429     0.000329    Uiso  ? O
   O101       1.0     0.376596     0.114462     0.503927    Uiso  ? O
   O102       1.0     0.376596     0.614462     0.503927    Uiso  ? O
   O103       1.0     0.876596     0.114462     0.503927    Uiso  ? O
   O104       1.0     0.876596     0.614462     0.503927    Uiso  ? O
   O105       1.0     0.126580     0.123450     0.038031    Uiso  ? O
   O106       1.0     0.126580     0.623450     0.038031    Uiso  ? O
   O107       1.0     0.626580     0.123450     0.038031    Uiso  ? O
   O108       1.0     0.626580     0.623450     0.038031    Uiso  ? O
   O109       1.0     0.126766     0.130811     0.513418    Uiso  ? O
   O110       1.0     0.126766     0.630811     0.513418    Uiso  ? O
   O111       1.0     0.626766     0.130811     0.513418    Uiso  ? O
   O112       1.0     0.626766     0.630811     0.513418    Uiso  ? O
   O113       1.0     0.127500     0.388900     0.275996    Uiso  ? O
   O114       1.0     0.127500     0.888901     0.275996    Uiso  ? O
   O115       1.0     0.627500     0.388900     0.275996    Uiso  ? O
   O116       1.0     0.627500     0.888901     0.275996    Uiso  ? O
   O117       1.0     0.127770     0.095928     0.250931    Uiso  ? O
   O118       1.0     0.127770     0.595928     0.250931    Uiso  ? O
   O119       1.0     0.627770     0.095928     0.250931    Uiso  ? O
   O120       1.0     0.627770     0.595928     0.250931    Uiso  ? O
   O121       1.0     0.126521     0.368429     0.000329    Uiso  ? O
   O122       1.0     0.126521     0.868429     0.000329    Uiso  ? O
   O123       1.0     0.626521     0.368429     0.000329    Uiso  ? O
   O124       1.0     0.626521     0.868429     0.000329    Uiso  ? O
   O125       1.0     0.126596     0.364462     0.503927    Uiso  ? O
   O126       1.0     0.126596     0.864462     0.503927    Uiso  ? O
   O127       1.0     0.626596     0.364462     0.503927    Uiso  ? O
   O128       1.0     0.626596     0.864462     0.503927    Uiso  ? O
   Pt1        1.0     0.996439     0.995323     0.636558    Uiso  ? Pt
   Pt2        1.0     0.007027     0.246362     0.644239    Uiso  ? Pt
   Pt3        1.0     0.996439     0.495323     0.636558    Uiso  ? Pt
   Pt4        1.0     0.007027     0.746362     0.644239    Uiso  ? Pt
   Pt5        1.0     0.257027     0.996362     0.644239    Uiso  ? Pt
   Pt6        1.0     0.246439     0.245323     0.636558    Uiso  ? Pt
   Pt7        1.0     0.257027     0.496362     0.644239    Uiso  ? Pt
   Pt8        1.0     0.246439     0.745323     0.636558    Uiso  ? Pt
   Pt9        1.0     0.496439     0.995323     0.636558    Uiso  ? Pt
   Pt10       1.0     0.507027     0.246362     0.644239    Uiso  ? Pt
   Pt11       1.0     0.496439     0.495323     0.636558    Uiso  ? Pt
   Pt12       1.0     0.507027     0.746362     0.644239    Uiso  ? Pt
   Pt13       1.0     0.757027     0.996362     0.644239    Uiso  ? Pt
   Pt14       1.0     0.746439     0.245323     0.636558    Uiso  ? Pt
   Pt15       1.0     0.757027     0.496362     0.644239    Uiso  ? Pt
   Pt16       1.0     0.746439     0.745323     0.636558    Uiso  ? Pt
   Pt17       1.0     0.014781     0.002873     0.873212    Uiso  ? Pt
   Pt18       1.0     0.997397     0.252873     0.859139    Uiso  ? Pt
   Pt19       1.0     0.014781     0.502873     0.873212    Uiso  ? Pt
   Pt20       1.0     0.997397     0.752873     0.859139    Uiso  ? Pt
   Pt21       1.0     0.247397     0.002873     0.859139    Uiso  ? Pt
   Pt22       1.0     0.264781     0.252873     0.873212    Uiso  ? Pt
   Pt23       1.0     0.247397     0.502873     0.859139    Uiso  ? Pt
   Pt24       1.0     0.264781     0.752873     0.873212    Uiso  ? Pt
   Pt25       1.0     0.514781     0.002873     0.873212    Uiso  ? Pt
   Pt26       1.0     0.497397     0.252873     0.859139    Uiso  ? Pt
   Pt27       1.0     0.514781     0.502873     0.873212    Uiso  ? Pt
   Pt28       1.0     0.497397     0.752873     0.859139    Uiso  ? Pt
   Pt29       1.0     0.747397     0.002873     0.859139    Uiso  ? Pt
   Pt30       1.0     0.764781     0.252873     0.873212    Uiso  ? Pt
   Pt31       1.0     0.747397     0.502873     0.859139    Uiso  ? Pt
   Pt32       1.0     0.764781     0.752873     0.873212    Uiso  ? Pt
   Pt33       1.0     0.000071     0.120685     0.754548    Uiso  ? Pt
   Pt34       1.0     0.005646     0.378292     0.754128    Uiso  ? Pt
   Pt35       1.0     0.000071     0.620685     0.754548    Uiso  ? Pt
   Pt36       1.0     0.005646     0.878292     0.754128    Uiso  ? Pt
   Pt37       1.0     0.255646     0.128292     0.754128    Uiso  ? Pt
   Pt38       1.0     0.250071     0.370685     0.754548    Uiso  ? Pt
   Pt39       1.0     0.255646     0.628292     0.754128    Uiso  ? Pt
   Pt40       1.0     0.250071     0.870685     0.754548    Uiso  ? Pt
   Pt41       1.0     0.500071     0.120685     0.754548    Uiso  ? Pt
   Pt42       1.0     0.505646     0.378292     0.754128    Uiso  ? Pt
   Pt43       1.0     0.500071     0.620685     0.754548    Uiso  ? Pt
   Pt44       1.0     0.505646     0.878292     0.754128    Uiso  ? Pt
   Pt45       1.0     0.755646     0.128292     0.754128    Uiso  ? Pt
   Pt46       1.0     0.750071     0.370685     0.754548    Uiso  ? Pt
   Pt47       1.0     0.755646     0.628292     0.754128    Uiso  ? Pt
   Pt48       1.0     0.750071     0.870685     0.754548    Uiso  ? Pt
   Pt49       1.0     0.124426     0.994672     0.745442    Uiso  ? Pt
   Pt50       1.0     0.130123     0.251691     0.761942    Uiso  ? Pt
   Pt51       1.0     0.124426     0.494672     0.745442    Uiso  ? Pt
   Pt52       1.0     0.130123     0.751691     0.761942    Uiso  ? Pt
   Pt53       1.0     0.380123     0.001691     0.761942    Uiso  ? Pt
   Pt54       1.0     0.374426     0.244672     0.745442    Uiso  ? Pt
   Pt55       1.0     0.380123     0.501691     0.761942    Uiso  ? Pt
   Pt56       1.0     0.374426     0.744672     0.745442    Uiso  ? Pt
   Pt57       1.0     0.624426     0.994672     0.745442    Uiso  ? Pt
   Pt58       1.0     0.630123     0.251691     0.761942    Uiso  ? Pt
   Pt59       1.0     0.624426     0.494672     0.745442    Uiso  ? Pt
   Pt60       1.0     0.630123     0.751691     0.761942    Uiso  ? Pt
   Pt61       1.0     0.880123     0.001691     0.761942    Uiso  ? Pt
   Pt62       1.0     0.874426     0.244672     0.745442    Uiso  ? Pt
   Pt63       1.0     0.880123     0.501691     0.761942    Uiso  ? Pt
   Pt64       1.0     0.874426     0.744672     0.745442    Uiso  ? Pt
   Pt65       1.0     0.125971     0.129318     0.642460    Uiso  ? Pt
   Pt66       1.0     0.125725     0.359159     0.636495    Uiso  ? Pt
   Pt67       1.0     0.125971     0.629318     0.642460    Uiso  ? Pt
   Pt68       1.0     0.125725     0.859159     0.636495    Uiso  ? Pt
   Pt69       1.0     0.375725     0.109159     0.636495    Uiso  ? Pt
   Pt70       1.0     0.375971     0.379318     0.642460    Uiso  ? Pt
   Pt71       1.0     0.375725     0.609159     0.636495    Uiso  ? Pt
   Pt72       1.0     0.375971     0.879318     0.642460    Uiso  ? Pt
   Pt73       1.0     0.625971     0.129318     0.642460    Uiso  ? Pt
   Pt74       1.0     0.625725     0.359159     0.636495    Uiso  ? Pt
   Pt75       1.0     0.625971     0.629318     0.642460    Uiso  ? Pt
   Pt76       1.0     0.625725     0.859159     0.636495    Uiso  ? Pt
   Pt77       1.0     0.875725     0.109159     0.636495    Uiso  ? Pt
   Pt78       1.0     0.875971     0.379318     0.642460    Uiso  ? Pt
   Pt79       1.0     0.875725     0.609159     0.636495    Uiso  ? Pt
   Pt80       1.0     0.875971     0.879318     0.642460    Uiso  ? Pt
   Pt81       1.0     0.129887     0.121322     0.859936    Uiso  ? Pt
   Pt82       1.0     0.130473     0.384629     0.872971    Uiso  ? Pt
   Pt83       1.0     0.129887     0.621322     0.859936    Uiso  ? Pt
   Pt84       1.0     0.130473     0.884629     0.872971    Uiso  ? Pt
   Pt85       1.0     0.380473     0.134629     0.872971    Uiso  ? Pt
   Pt86       1.0     0.379887     0.371322     0.859936    Uiso  ? Pt
   Pt87       1.0     0.380473     0.634629     0.872971    Uiso  ? Pt
   Pt88       1.0     0.379887     0.871322     0.859936    Uiso  ? Pt
   Pt89       1.0     0.629887     0.121322     0.859936    Uiso  ? Pt
   Pt90       1.0     0.630473     0.384629     0.872971    Uiso  ? Pt
   Pt91       1.0     0.629887     0.621322     0.859936    Uiso  ? Pt
   Pt92       1.0     0.630473     0.884629     0.872971    Uiso  ? Pt
   Pt93       1.0     0.880473     0.134629     0.872971    Uiso  ? Pt
   Pt94       1.0     0.879887     0.371322     0.859936    Uiso  ? Pt
   Pt95       1.0     0.880473     0.634629     0.872971    Uiso  ? Pt
   Pt96       1.0     0.879887     0.871322     0.859936    Uiso  ? Pt
