
#======================================================================
# CRYSTAL DATA
#----------------------------------------------------------------------
data_VESTA_phase_1

_chemical_name_common                  'isocif-output                         '
_cell_length_a                         16.490572
_cell_length_b                         16.490572
_cell_length_c                         15.972633
_cell_angle_alpha                      90.000000
_cell_angle_beta                       90.000000
_cell_angle_gamma                      90.383347
_cell_volume                           4343.484150
_space_group_name_H-M_alt              'P 1'
_space_group_IT_number                 1

loop_
_space_group_symop_operation_xyz
   'x, y, z'

loop_
   _atom_site_label
   _atom_site_occupancy
   _atom_site_fract_x
   _atom_site_fract_y
   _atom_site_fract_z
   _atom_site_adp_type
   _atom_site_U_iso_or_equiv
   _atom_site_type_symbol
   Pb1        1.0     0.258695     0.385373     0.391045    Uiso  ? Pb
   Pb2        1.0     0.758695     0.885373     0.391045    Uiso  ? Pb
   Pb3        1.0     0.008695     0.135373     0.391045    Uiso  ? Pb
   Pb4        1.0     0.508695     0.635373     0.391045    Uiso  ? Pb
   Pb5        1.0     0.991305     0.864627     0.391045    Uiso  ? Pb
   Pb6        1.0     0.491305     0.364627     0.391045    Uiso  ? Pb
   Pb7        1.0     0.741305     0.614627     0.391045    Uiso  ? Pb
   Pb8        1.0     0.241305     0.114627     0.391045    Uiso  ? Pb
   Pb9        1.0     0.989627     0.616305     0.391045    Uiso  ? Pb
   Pb10       1.0     0.489627     0.116305     0.391045    Uiso  ? Pb
   Pb11       1.0     0.739627     0.366305     0.391045    Uiso  ? Pb
   Pb12       1.0     0.239627     0.866305     0.391045    Uiso  ? Pb
   Pb13       1.0     0.260373     0.633695     0.391045    Uiso  ? Pb
   Pb14       1.0     0.760373     0.133695     0.391045    Uiso  ? Pb
   Pb15       1.0     0.010373     0.383695     0.391045    Uiso  ? Pb
   Pb16       1.0     0.510373     0.883695     0.391045    Uiso  ? Pb
   Pb17       1.0     0.260796     0.381320     0.138261    Uiso  ? Pb
   Pb18       1.0     0.760796     0.881320     0.138261    Uiso  ? Pb
   Pb19       1.0     0.010796     0.131320     0.138261    Uiso  ? Pb
   Pb20       1.0     0.510796     0.631320     0.138261    Uiso  ? Pb
   Pb21       1.0     0.989204     0.868680     0.138261    Uiso  ? Pb
   Pb22       1.0     0.489204     0.368680     0.138261    Uiso  ? Pb
   Pb23       1.0     0.739204     0.618680     0.138261    Uiso  ? Pb
   Pb24       1.0     0.239204     0.118680     0.138261    Uiso  ? Pb
   Pb25       1.0     0.993680     0.614204     0.138261    Uiso  ? Pb
   Pb26       1.0     0.493680     0.114204     0.138261    Uiso  ? Pb
   Pb27       1.0     0.743680     0.364204     0.138261    Uiso  ? Pb
   Pb28       1.0     0.243680     0.864204     0.138261    Uiso  ? Pb
   Pb29       1.0     0.256320     0.635796     0.138261    Uiso  ? Pb
   Pb30       1.0     0.756320     0.135796     0.138261    Uiso  ? Pb
   Pb31       1.0     0.006320     0.385796     0.138261    Uiso  ? Pb
   Pb32       1.0     0.506320     0.885796     0.138261    Uiso  ? Pb
   Zr1        1.0     0.375900     0.501653     0.266353    Uiso  ? Zr
   Zr2        1.0     0.875900     0.001653     0.266353    Uiso  ? Zr
   Zr3        1.0     0.125900     0.251653     0.266353    Uiso  ? Zr
   Zr4        1.0     0.625900     0.751653     0.266353    Uiso  ? Zr
   Zr5        1.0     0.375923     0.254479     0.521258    Uiso  ? Zr
   Zr6        1.0     0.875923     0.754479     0.521258    Uiso  ? Zr
   Zr7        1.0     0.874849     0.750880     0.010120    Uiso  ? Zr
   Zr8        1.0     0.374849     0.250880     0.010120    Uiso  ? Zr
   Zr9        1.0     0.625923     0.504479     0.521258    Uiso  ? Zr
   Zr10       1.0     0.624849     0.500880     0.010120    Uiso  ? Zr
   Zr11       1.0     0.125923     0.004478     0.521258    Uiso  ? Zr
   Zr12       1.0     0.124849     0.000880     0.010120    Uiso  ? Zr
   Zr13       1.0     0.874100     0.748347     0.266353    Uiso  ? Zr
   Zr14       1.0     0.374100     0.248347     0.266353    Uiso  ? Zr
   Zr15       1.0     0.624100     0.498347     0.266353    Uiso  ? Zr
   Zr16       1.0     0.124100     0.998347     0.266353    Uiso  ? Zr
   Zr17       1.0     0.874077     0.995521     0.521258    Uiso  ? Zr
   Zr18       1.0     0.374077     0.495521     0.521258    Uiso  ? Zr
   Zr19       1.0     0.375151     0.499120     0.010120    Uiso  ? Zr
   Zr20       1.0     0.875151     0.999120     0.010120    Uiso  ? Zr
   Zr21       1.0     0.124077     0.245521     0.521258    Uiso  ? Zr
   Zr22       1.0     0.125151     0.249120     0.010120    Uiso  ? Zr
   Zr23       1.0     0.624077     0.745521     0.521258    Uiso  ? Zr
   Zr24       1.0     0.625151     0.749120     0.010120    Uiso  ? Zr
   Zr25       1.0     0.629479     0.250923     0.521258    Uiso  ? Zr
   Zr26       1.0     0.129479     0.750923     0.521258    Uiso  ? Zr
   Zr27       1.0     0.125880     0.749849     0.010120    Uiso  ? Zr
   Zr28       1.0     0.625880     0.249849     0.010120    Uiso  ? Zr
   Zr29       1.0     0.879479     0.500923     0.521258    Uiso  ? Zr
   Zr30       1.0     0.875880     0.499849     0.010120    Uiso  ? Zr
   Zr31       1.0     0.379479     0.000923     0.521258    Uiso  ? Zr
   Zr32       1.0     0.375880     0.999849     0.010120    Uiso  ? Zr
   Zr33       1.0     0.126653     0.500900     0.266353    Uiso  ? Zr
   Zr34       1.0     0.626653     0.000900     0.266353    Uiso  ? Zr
   Zr35       1.0     0.876653     0.250900     0.266353    Uiso  ? Zr
   Zr36       1.0     0.376653     0.750900     0.266353    Uiso  ? Zr
   Zr37       1.0     0.620521     0.999077     0.521258    Uiso  ? Zr
   Zr38       1.0     0.120521     0.499077     0.521258    Uiso  ? Zr
   Zr39       1.0     0.124120     0.500151     0.010120    Uiso  ? Zr
   Zr40       1.0     0.624120     0.000151     0.010120    Uiso  ? Zr
   Zr41       1.0     0.870521     0.249077     0.521258    Uiso  ? Zr
   Zr42       1.0     0.874120     0.250151     0.010120    Uiso  ? Zr
   Zr43       1.0     0.370521     0.749077     0.521258    Uiso  ? Zr
   Zr44       1.0     0.374120     0.750151     0.010120    Uiso  ? Zr
   Zr45       1.0     0.123347     0.749100     0.266353    Uiso  ? Zr
   Zr46       1.0     0.623347     0.249100     0.266353    Uiso  ? Zr
   Zr47       1.0     0.873347     0.499100     0.266353    Uiso  ? Zr
   Zr48       1.0     0.373347     0.999100     0.266353    Uiso  ? Zr
   O1         1.0     0.500000     0.500000     0.267725    Uiso  ? O
   O2         1.0     -0.000000     0.000000     0.267725    Uiso  ? O
   O3         1.0     0.250000     0.250000     0.267725    Uiso  ? O
   O4         1.0     0.750000     0.750000     0.267725    Uiso  ? O
   O5         1.0     -0.000000     0.000000     0.513847    Uiso  ? O
   O6         1.0     0.500000     0.500000     0.513847    Uiso  ? O
   O7         1.0     0.500000     0.500000     0.016161    Uiso  ? O
   O8         1.0     -0.000000     0.000000     0.016161    Uiso  ? O
   O9         1.0     0.250000     0.250000     0.513847    Uiso  ? O
   O10        1.0     0.250000     0.250000     0.016161    Uiso  ? O
   O11        1.0     0.750000     0.750000     0.513847    Uiso  ? O
   O12        1.0     0.750000     0.750000     0.016161    Uiso  ? O
   O13        1.0     0.625000     0.125000     0.513847    Uiso  ? O
   O14        1.0     0.125000     0.625000     0.513847    Uiso  ? O
   O15        1.0     0.125000     0.625000     0.016161    Uiso  ? O
   O16        1.0     0.625000     0.125000     0.016161    Uiso  ? O
   O17        1.0     0.875000     0.375000     0.513847    Uiso  ? O
   O18        1.0     0.875000     0.375000     0.016161    Uiso  ? O
   O19        1.0     0.375000     0.875000     0.513847    Uiso  ? O
   O20        1.0     0.375000     0.875000     0.016161    Uiso  ? O
   O21        1.0     0.125000     0.625000     0.267725    Uiso  ? O
   O22        1.0     0.625000     0.125000     0.267725    Uiso  ? O
   O23        1.0     0.875000     0.375000     0.267725    Uiso  ? O
   O24        1.0     0.375000     0.875000     0.267725    Uiso  ? O
   O25        1.0     0.250000     0.750000     0.285628    Uiso  ? O
   O26        1.0     0.750000     0.250000     0.285628    Uiso  ? O
   O27        1.0     0.000000     0.500000     0.285628    Uiso  ? O
   O28        1.0     0.500000     0.000000     0.285628    Uiso  ? O
   O29        1.0     0.750000     0.250000     0.481045    Uiso  ? O
   O30        1.0     0.250000     0.750000     0.481045    Uiso  ? O
   O31        1.0     0.250000     0.750000     0.006351    Uiso  ? O
   O32        1.0     0.750000     0.250000     0.006351    Uiso  ? O
   O33        1.0     0.000000     0.500000     0.481045    Uiso  ? O
   O34        1.0     0.000000     0.500000     0.006351    Uiso  ? O
   O35        1.0     0.500000     0.000000     0.481045    Uiso  ? O
   O36        1.0     0.500000     0.000000     0.006351    Uiso  ? O
   O37        1.0     0.875000     0.875000     0.481045    Uiso  ? O
   O38        1.0     0.375000     0.375000     0.481045    Uiso  ? O
   O39        1.0     0.375000     0.375000     0.006351    Uiso  ? O
   O40        1.0     0.875000     0.875000     0.006351    Uiso  ? O
   O41        1.0     0.125000     0.125000     0.481045    Uiso  ? O
   O42        1.0     0.125000     0.125000     0.006351    Uiso  ? O
   O43        1.0     0.625000     0.625000     0.481045    Uiso  ? O
   O44        1.0     0.625000     0.625000     0.006351    Uiso  ? O
   O45        1.0     0.375000     0.375000     0.285628    Uiso  ? O
   O46        1.0     0.875000     0.875000     0.285628    Uiso  ? O
   O47        1.0     0.125000     0.125000     0.285628    Uiso  ? O
   O48        1.0     0.625000     0.625000     0.285628    Uiso  ? O
   O49        1.0     0.357964     0.623222     0.250672    Uiso  ? O
   O50        1.0     0.857964     0.123222     0.250672    Uiso  ? O
   O51        1.0     0.107964     0.373222     0.250672    Uiso  ? O
   O52        1.0     0.607964     0.873222     0.250672    Uiso  ? O
   O53        1.0     0.385184     0.128606     0.520641    Uiso  ? O
   O54        1.0     0.885184     0.628606     0.520641    Uiso  ? O
   O55        1.0     0.882813     0.625789     0.021756    Uiso  ? O
   O56        1.0     0.382813     0.125789     0.021756    Uiso  ? O
   O57        1.0     0.635184     0.378606     0.520641    Uiso  ? O
   O58        1.0     0.632813     0.375789     0.021756    Uiso  ? O
   O59        1.0     0.135184     0.878606     0.520641    Uiso  ? O
   O60        1.0     0.132813     0.875789     0.021756    Uiso  ? O
   O61        1.0     0.892036     0.626778     0.250672    Uiso  ? O
   O62        1.0     0.392036     0.126778     0.250672    Uiso  ? O
   O63        1.0     0.642036     0.376778     0.250672    Uiso  ? O
   O64        1.0     0.142036     0.876778     0.250672    Uiso  ? O
   O65        1.0     0.864816     0.121394     0.520641    Uiso  ? O
   O66        1.0     0.364816     0.621394     0.520641    Uiso  ? O
   O67        1.0     0.367187     0.624211     0.021756    Uiso  ? O
   O68        1.0     0.867187     0.124211     0.021756    Uiso  ? O
   O69        1.0     0.114816     0.371394     0.520641    Uiso  ? O
   O70        1.0     0.117187     0.374211     0.021756    Uiso  ? O
   O71        1.0     0.614816     0.871394     0.520641    Uiso  ? O
   O72        1.0     0.617187     0.874211     0.021756    Uiso  ? O
   O73        1.0     0.503606     0.260184     0.520641    Uiso  ? O
   O74        1.0     0.003606     0.760184     0.520641    Uiso  ? O
   O75        1.0     0.000789     0.757813     0.021756    Uiso  ? O
   O76        1.0     0.500789     0.257813     0.021756    Uiso  ? O
   O77        1.0     0.753606     0.510184     0.520641    Uiso  ? O
   O78        1.0     0.750789     0.507813     0.021756    Uiso  ? O
   O79        1.0     0.253606     0.010184     0.520641    Uiso  ? O
   O80        1.0     0.250789     0.007813     0.021756    Uiso  ? O
   O81        1.0     0.248222     0.482964     0.250672    Uiso  ? O
   O82        1.0     0.748222     0.982964     0.250672    Uiso  ? O
   O83        1.0     0.998222     0.232964     0.250672    Uiso  ? O
   O84        1.0     0.498222     0.732964     0.250672    Uiso  ? O
   O85        1.0     0.746394     0.989816     0.520641    Uiso  ? O
   O86        1.0     0.246394     0.489816     0.520641    Uiso  ? O
   O87        1.0     0.249211     0.492187     0.021756    Uiso  ? O
   O88        1.0     0.749211     0.992187     0.021756    Uiso  ? O
   O89        1.0     0.996394     0.239816     0.520641    Uiso  ? O
   O90        1.0     0.999211     0.242187     0.021756    Uiso  ? O
   O91        1.0     0.496394     0.739816     0.520641    Uiso  ? O
   O92        1.0     0.499211     0.742187     0.021756    Uiso  ? O
   O93        1.0     0.001778     0.767036     0.250672    Uiso  ? O
   O94        1.0     0.501778     0.267036     0.250672    Uiso  ? O
   O95        1.0     0.751778     0.517036     0.250672    Uiso  ? O
   O96        1.0     0.251778     0.017036     0.250672    Uiso  ? O
   O97        1.0     0.357996     0.511419     0.392819    Uiso  ? O
   O98        1.0     0.857996     0.011419     0.392819    Uiso  ? O
   O99        1.0     0.107996     0.261419     0.392819    Uiso  ? O
   O100       1.0     0.607996     0.761419     0.392819    Uiso  ? O
   O101       1.0     0.892004     0.738581     0.392819    Uiso  ? O
   O102       1.0     0.392004     0.238581     0.392819    Uiso  ? O
   O103       1.0     0.642004     0.488581     0.392819    Uiso  ? O
   O104       1.0     0.142004     0.988581     0.392819    Uiso  ? O
   O105       1.0     0.113581     0.767004     0.392819    Uiso  ? O
   O106       1.0     0.613581     0.267004     0.392819    Uiso  ? O
   O107       1.0     0.863581     0.517004     0.392819    Uiso  ? O
   O108       1.0     0.363581     0.017004     0.392819    Uiso  ? O
   O109       1.0     0.136419     0.482996     0.392819    Uiso  ? O
   O110       1.0     0.636419     0.982996     0.392819    Uiso  ? O
   O111       1.0     0.886419     0.232996     0.392819    Uiso  ? O
   O112       1.0     0.386419     0.732996     0.392819    Uiso  ? O
   O113       1.0     0.376274     0.475193     0.137390    Uiso  ? O
   O114       1.0     0.876274     0.975193     0.137390    Uiso  ? O
   O115       1.0     0.126274     0.225193     0.137390    Uiso  ? O
   O116       1.0     0.626274     0.725193     0.137390    Uiso  ? O
   O117       1.0     0.873726     0.774807     0.137390    Uiso  ? O
   O118       1.0     0.373726     0.274807     0.137390    Uiso  ? O
   O119       1.0     0.623726     0.524807     0.137390    Uiso  ? O
   O120       1.0     0.123726     0.024807     0.137390    Uiso  ? O
   O121       1.0     0.149807     0.748726     0.137390    Uiso  ? O
   O122       1.0     0.649807     0.248726     0.137390    Uiso  ? O
   O123       1.0     0.899807     0.498726     0.137390    Uiso  ? O
   O124       1.0     0.399807     0.998726     0.137390    Uiso  ? O
   O125       1.0     0.100193     0.501274     0.137390    Uiso  ? O
   O126       1.0     0.600193     0.001274     0.137390    Uiso  ? O
   O127       1.0     0.850193     0.251274     0.137390    Uiso  ? O
   O128       1.0     0.350193     0.751274     0.137390    Uiso  ? O
   Pt1        1.0     -0.000000     0.000000     0.646632    Uiso  ? Pt
   Pt2        1.0     0.003599     0.240537     0.649322    Uiso  ? Pt
   Pt3        1.0     0.000000     0.500000     0.665848    Uiso  ? Pt
   Pt4        1.0     0.996401     0.759463     0.649322    Uiso  ? Pt
   Pt5        1.0     0.246401     0.009463     0.649322    Uiso  ? Pt
   Pt6        1.0     0.250000     0.250000     0.646632    Uiso  ? Pt
   Pt7        1.0     0.253599     0.490537     0.649322    Uiso  ? Pt
   Pt8        1.0     0.250000     0.750000     0.665848    Uiso  ? Pt
   Pt9        1.0     0.500000     0.000000     0.665848    Uiso  ? Pt
   Pt10       1.0     0.496401     0.259463     0.649322    Uiso  ? Pt
   Pt11       1.0     0.500000     0.500000     0.646632    Uiso  ? Pt
   Pt12       1.0     0.503599     0.740537     0.649322    Uiso  ? Pt
   Pt13       1.0     0.753599     0.990537     0.649322    Uiso  ? Pt
   Pt14       1.0     0.750000     0.250000     0.665848    Uiso  ? Pt
   Pt15       1.0     0.746401     0.509463     0.649322    Uiso  ? Pt
   Pt16       1.0     0.750000     0.750000     0.646632    Uiso  ? Pt
   Pt17       1.0     -0.000000     0.000000     0.883565    Uiso  ? Pt
   Pt18       1.0     0.996715     0.253443     0.885951    Uiso  ? Pt
   Pt19       1.0     0.000000     0.500000     0.877300    Uiso  ? Pt
   Pt20       1.0     0.003285     0.746557     0.885951    Uiso  ? Pt
   Pt21       1.0     0.253285     0.996557     0.885951    Uiso  ? Pt
   Pt22       1.0     0.250000     0.250000     0.883565    Uiso  ? Pt
   Pt23       1.0     0.246715     0.503443     0.885951    Uiso  ? Pt
   Pt24       1.0     0.250000     0.750000     0.877300    Uiso  ? Pt
   Pt25       1.0     0.500000     0.000000     0.877300    Uiso  ? Pt
   Pt26       1.0     0.503285     0.246557     0.885951    Uiso  ? Pt
   Pt27       1.0     0.500000     0.500000     0.883565    Uiso  ? Pt
   Pt28       1.0     0.496715     0.753443     0.885951    Uiso  ? Pt
   Pt29       1.0     0.746715     0.003443     0.885951    Uiso  ? Pt
   Pt30       1.0     0.750000     0.250000     0.877300    Uiso  ? Pt
   Pt31       1.0     0.753285     0.496557     0.885951    Uiso  ? Pt
   Pt32       1.0     0.750000     0.750000     0.883565    Uiso  ? Pt
   Pt33       1.0     0.995418     0.122935     0.766956    Uiso  ? Pt
   Pt34       1.0     0.997935     0.370418     0.766956    Uiso  ? Pt
   Pt35       1.0     0.002065     0.629582     0.766956    Uiso  ? Pt
   Pt36       1.0     0.004582     0.877065     0.766956    Uiso  ? Pt
   Pt37       1.0     0.254582     0.127065     0.766956    Uiso  ? Pt
   Pt38       1.0     0.245418     0.372935     0.766956    Uiso  ? Pt
   Pt39       1.0     0.247935     0.620418     0.766956    Uiso  ? Pt
   Pt40       1.0     0.252065     0.879582     0.766956    Uiso  ? Pt
   Pt41       1.0     0.502065     0.129582     0.766956    Uiso  ? Pt
   Pt42       1.0     0.504582     0.377065     0.766956    Uiso  ? Pt
   Pt43       1.0     0.495418     0.622935     0.766956    Uiso  ? Pt
   Pt44       1.0     0.497935     0.870418     0.766956    Uiso  ? Pt
   Pt45       1.0     0.747935     0.120418     0.766956    Uiso  ? Pt
   Pt46       1.0     0.752065     0.379582     0.766956    Uiso  ? Pt
   Pt47       1.0     0.754582     0.627065     0.766956    Uiso  ? Pt
   Pt48       1.0     0.745418     0.872935     0.766956    Uiso  ? Pt
   Pt49       1.0     0.125848     0.996032     0.766497    Uiso  ? Pt
   Pt50       1.0     0.124152     0.253968     0.766497    Uiso  ? Pt
   Pt51       1.0     0.128968     0.499152     0.766497    Uiso  ? Pt
   Pt52       1.0     0.121032     0.750848     0.766497    Uiso  ? Pt
   Pt53       1.0     0.371032     0.000848     0.766497    Uiso  ? Pt
   Pt54       1.0     0.375848     0.246032     0.766497    Uiso  ? Pt
   Pt55       1.0     0.374152     0.503968     0.766497    Uiso  ? Pt
   Pt56       1.0     0.378968     0.749152     0.766497    Uiso  ? Pt
   Pt57       1.0     0.628968     0.999152     0.766497    Uiso  ? Pt
   Pt58       1.0     0.621032     0.250848     0.766497    Uiso  ? Pt
   Pt59       1.0     0.625848     0.496032     0.766497    Uiso  ? Pt
   Pt60       1.0     0.624152     0.753968     0.766497    Uiso  ? Pt
   Pt61       1.0     0.874152     0.003968     0.766497    Uiso  ? Pt
   Pt62       1.0     0.878968     0.249152     0.766497    Uiso  ? Pt
   Pt63       1.0     0.871032     0.500848     0.766497    Uiso  ? Pt
   Pt64       1.0     0.875848     0.746032     0.766497    Uiso  ? Pt
   Pt65       1.0     0.125000     0.125000     0.665848    Uiso  ? Pt
   Pt66       1.0     0.115537     0.378599     0.649322    Uiso  ? Pt
   Pt67       1.0     0.125000     0.625000     0.646632    Uiso  ? Pt
   Pt68       1.0     0.134463     0.871401     0.649322    Uiso  ? Pt
   Pt69       1.0     0.384463     0.121401     0.649322    Uiso  ? Pt
   Pt70       1.0     0.375000     0.375000     0.665848    Uiso  ? Pt
   Pt71       1.0     0.365537     0.628599     0.649322    Uiso  ? Pt
   Pt72       1.0     0.375000     0.875000     0.646632    Uiso  ? Pt
   Pt73       1.0     0.625000     0.125000     0.646632    Uiso  ? Pt
   Pt74       1.0     0.634463     0.371401     0.649322    Uiso  ? Pt
   Pt75       1.0     0.625000     0.625000     0.665848    Uiso  ? Pt
   Pt76       1.0     0.615537     0.878599     0.649322    Uiso  ? Pt
   Pt77       1.0     0.865537     0.128599     0.649322    Uiso  ? Pt
   Pt78       1.0     0.875000     0.375000     0.646632    Uiso  ? Pt
   Pt79       1.0     0.884463     0.621401     0.649322    Uiso  ? Pt
   Pt80       1.0     0.875000     0.875000     0.665848    Uiso  ? Pt
   Pt81       1.0     0.125000     0.125000     0.877300    Uiso  ? Pt
   Pt82       1.0     0.128443     0.371715     0.885951    Uiso  ? Pt
   Pt83       1.0     0.125000     0.625000     0.883565    Uiso  ? Pt
   Pt84       1.0     0.121557     0.878285     0.885951    Uiso  ? Pt
   Pt85       1.0     0.371557     0.128285     0.885951    Uiso  ? Pt
   Pt86       1.0     0.375000     0.375000     0.877300    Uiso  ? Pt
   Pt87       1.0     0.378443     0.621715     0.885951    Uiso  ? Pt
   Pt88       1.0     0.375000     0.875000     0.883565    Uiso  ? Pt
   Pt89       1.0     0.625000     0.125000     0.883565    Uiso  ? Pt
   Pt90       1.0     0.621557     0.378285     0.885951    Uiso  ? Pt
   Pt91       1.0     0.625000     0.625000     0.877300    Uiso  ? Pt
   Pt92       1.0     0.628443     0.871715     0.885951    Uiso  ? Pt
   Pt93       1.0     0.878443     0.121715     0.885951    Uiso  ? Pt
   Pt94       1.0     0.875000     0.375000     0.883565    Uiso  ? Pt
   Pt95       1.0     0.871557     0.628285     0.885951    Uiso  ? Pt
   Pt96       1.0     0.875000     0.875000     0.877300    Uiso  ? Pt
