
#======================================================================
# CRYSTAL DATA
#----------------------------------------------------------------------
data_VESTA_phase_1

_chemical_name_common                  'isocif-output                         '
_cell_length_a                         16.445499
_cell_length_b                         16.445499
_cell_length_c                         11.815988
_cell_angle_alpha                      90.000000
_cell_angle_beta                       90.000000
_cell_angle_gamma                      90.000000
_cell_volume                           3195.686438
_space_group_name_H-M_alt              'P 1'
_space_group_IT_number                 1

loop_
_space_group_symop_operation_xyz
   'x, y, z'

loop_
   _atom_site_label
   _atom_site_occupancy
   _atom_site_fract_x
   _atom_site_fract_y
   _atom_site_fract_z
   _atom_site_adp_type
   _atom_site_U_iso_or_equiv
   _atom_site_type_symbol
   Pb1        1.0     0.125000     0.000000     0.170532    Uiso  ? Pb
   Pb2        1.0     0.125000     0.250000     0.170532    Uiso  ? Pb
   Pb3        1.0     0.125000     0.500000     0.170532    Uiso  ? Pb
   Pb4        1.0     0.125000     0.750000     0.170532    Uiso  ? Pb
   Pb5        1.0     0.375000     0.000000     0.170532    Uiso  ? Pb
   Pb6        1.0     0.375000     0.250000     0.170532    Uiso  ? Pb
   Pb7        1.0     0.375000     0.500000     0.170532    Uiso  ? Pb
   Pb8        1.0     0.375000     0.750000     0.170532    Uiso  ? Pb
   Pb9        1.0     0.625000     0.000000     0.170532    Uiso  ? Pb
   Pb10       1.0     0.625000     0.250000     0.170532    Uiso  ? Pb
   Pb11       1.0     0.625000     0.500000     0.170532    Uiso  ? Pb
   Pb12       1.0     0.625000     0.750000     0.170532    Uiso  ? Pb
   Pb13       1.0     0.875000     -0.000000     0.170532    Uiso  ? Pb
   Pb14       1.0     0.875000     0.250000     0.170532    Uiso  ? Pb
   Pb15       1.0     0.875000     0.500000     0.170532    Uiso  ? Pb
   Pb16       1.0     0.875000     0.750000     0.170532    Uiso  ? Pb
   Zr1        1.0     -0.000000     0.125000    -0.001883    Uiso  ? Zr
   Zr2        1.0     0.000000     0.375000    -0.001883    Uiso  ? Zr
   Zr3        1.0     -0.000000     0.625000    -0.001883    Uiso  ? Zr
   Zr4        1.0     0.000000     0.875000    -0.001883    Uiso  ? Zr
   Zr5        1.0     0.250000     0.125000    -0.001883    Uiso  ? Zr
   Zr6        1.0     0.250000     0.375000    -0.001883    Uiso  ? Zr
   Zr7        1.0     0.250000     0.625000    -0.001883    Uiso  ? Zr
   Zr8        1.0     0.250000     0.875000    -0.001883    Uiso  ? Zr
   Zr9        1.0     0.500000     0.125000    -0.001883    Uiso  ? Zr
   Zr10       1.0     0.500000     0.375000    -0.001883    Uiso  ? Zr
   Zr11       1.0     0.500000     0.625000    -0.001883    Uiso  ? Zr
   Zr12       1.0     0.500000     0.875000    -0.001883    Uiso  ? Zr
   Zr13       1.0     0.750000     0.125000    -0.001883    Uiso  ? Zr
   Zr14       1.0     0.750000     0.375000    -0.001883    Uiso  ? Zr
   Zr15       1.0     0.750000     0.625000    -0.001883    Uiso  ? Zr
   Zr16       1.0     0.750000     0.875000    -0.001883    Uiso  ? Zr
   Zr17       1.0     0.000000     0.125000     0.342948    Uiso  ? Zr
   Zr18       1.0     0.000000     0.375000     0.342948    Uiso  ? Zr
   Zr19       1.0     -0.000000     0.625000     0.342948    Uiso  ? Zr
   Zr20       1.0     -0.000000     0.875000     0.342948    Uiso  ? Zr
   Zr21       1.0     0.250000     0.125000     0.342948    Uiso  ? Zr
   Zr22       1.0     0.250000     0.375000     0.342948    Uiso  ? Zr
   Zr23       1.0     0.250000     0.625000     0.342948    Uiso  ? Zr
   Zr24       1.0     0.250000     0.875000     0.342948    Uiso  ? Zr
   Zr25       1.0     0.500000     0.125000     0.342948    Uiso  ? Zr
   Zr26       1.0     0.500000     0.375000     0.342948    Uiso  ? Zr
   Zr27       1.0     0.500000     0.625000     0.342948    Uiso  ? Zr
   Zr28       1.0     0.500000     0.875000     0.342948    Uiso  ? Zr
   Zr29       1.0     0.750000     0.125000     0.342948    Uiso  ? Zr
   Zr30       1.0     0.750000     0.375000     0.342948    Uiso  ? Zr
   Zr31       1.0     0.750000     0.625000     0.342948    Uiso  ? Zr
   Zr32       1.0     0.750000     0.875000     0.342948    Uiso  ? Zr
   O1         1.0     0.125000     0.125000     0.010398    Uiso  ? O
   O2         1.0     0.125000     0.375000     0.010398    Uiso  ? O
   O3         1.0     0.125000     0.625000     0.010398    Uiso  ? O
   O4         1.0     0.125000     0.875000     0.010398    Uiso  ? O
   O5         1.0     0.375000     0.125000     0.010398    Uiso  ? O
   O6         1.0     0.375000     0.375000     0.010398    Uiso  ? O
   O7         1.0     0.375000     0.625000     0.010398    Uiso  ? O
   O8         1.0     0.375000     0.875000     0.010398    Uiso  ? O
   O9         1.0     0.625000     0.125000     0.010398    Uiso  ? O
   O10        1.0     0.625000     0.375000     0.010398    Uiso  ? O
   O11        1.0     0.625000     0.625000     0.010398    Uiso  ? O
   O12        1.0     0.625000     0.875000     0.010398    Uiso  ? O
   O13        1.0     0.875000     0.125000     0.010398    Uiso  ? O
   O14        1.0     0.875000     0.375000     0.010398    Uiso  ? O
   O15        1.0     0.875000     0.625000     0.010398    Uiso  ? O
   O16        1.0     0.875000     0.875000     0.010398    Uiso  ? O
   O17        1.0     0.125000     0.125000     0.330666    Uiso  ? O
   O18        1.0     0.125000     0.375000     0.330666    Uiso  ? O
   O19        1.0     0.125000     0.625000     0.330666    Uiso  ? O
   O20        1.0     0.125000     0.875000     0.330666    Uiso  ? O
   O21        1.0     0.375000     0.125000     0.330666    Uiso  ? O
   O22        1.0     0.375000     0.375000     0.330666    Uiso  ? O
   O23        1.0     0.375000     0.625000     0.330666    Uiso  ? O
   O24        1.0     0.375000     0.875000     0.330666    Uiso  ? O
   O25        1.0     0.625000     0.125000     0.330666    Uiso  ? O
   O26        1.0     0.625000     0.375000     0.330666    Uiso  ? O
   O27        1.0     0.625000     0.625000     0.330666    Uiso  ? O
   O28        1.0     0.625000     0.875000     0.330666    Uiso  ? O
   O29        1.0     0.875000     0.125000     0.330666    Uiso  ? O
   O30        1.0     0.875000     0.375000     0.330666    Uiso  ? O
   O31        1.0     0.875000     0.625000     0.330666    Uiso  ? O
   O32        1.0     0.875000     0.875000     0.330666    Uiso  ? O
   O33        1.0     0.000000     0.000000     0.010398    Uiso  ? O
   O34        1.0     0.000000     0.250000     0.010398    Uiso  ? O
   O35        1.0     0.000000     0.500000     0.010398    Uiso  ? O
   O36        1.0     0.000000     0.750000     0.010398    Uiso  ? O
   O37        1.0     0.250000     0.000000     0.010398    Uiso  ? O
   O38        1.0     0.250000     0.250000     0.010398    Uiso  ? O
   O39        1.0     0.250000     0.500000     0.010398    Uiso  ? O
   O40        1.0     0.250000     0.750000     0.010398    Uiso  ? O
   O41        1.0     0.500000     -0.000000     0.010398    Uiso  ? O
   O42        1.0     0.500000     0.250000     0.010398    Uiso  ? O
   O43        1.0     0.500000     0.500000     0.010398    Uiso  ? O
   O44        1.0     0.500000     0.750000     0.010398    Uiso  ? O
   O45        1.0     0.750000     0.000000     0.010398    Uiso  ? O
   O46        1.0     0.750000     0.250000     0.010398    Uiso  ? O
   O47        1.0     0.750000     0.500000     0.010398    Uiso  ? O
   O48        1.0     0.750000     0.750000     0.010398    Uiso  ? O
   O49        1.0     -0.000000     0.000000     0.330666    Uiso  ? O
   O50        1.0     0.000000     0.250000     0.330666    Uiso  ? O
   O51        1.0     -0.000000     0.500000     0.330666    Uiso  ? O
   O52        1.0     -0.000000     0.750000     0.330666    Uiso  ? O
   O53        1.0     0.250000     0.000000     0.330666    Uiso  ? O
   O54        1.0     0.250000     0.250000     0.330666    Uiso  ? O
   O55        1.0     0.250000     0.500000     0.330666    Uiso  ? O
   O56        1.0     0.250000     0.750000     0.330666    Uiso  ? O
   O57        1.0     0.500000     0.000000     0.330666    Uiso  ? O
   O58        1.0     0.500000     0.250000     0.330666    Uiso  ? O
   O59        1.0     0.500000     0.500000     0.330666    Uiso  ? O
   O60        1.0     0.500000     0.750000     0.330666    Uiso  ? O
   O61        1.0     0.750000     -0.000000     0.330666    Uiso  ? O
   O62        1.0     0.750000     0.250000     0.330666    Uiso  ? O
   O63        1.0     0.750000     0.500000     0.330666    Uiso  ? O
   O64        1.0     0.750000     0.750000     0.330666    Uiso  ? O
   O65        1.0     0.000000     0.125000     0.170532    Uiso  ? O
   O66        1.0     0.000000     0.375000     0.170532    Uiso  ? O
   O67        1.0     0.000000     0.625000     0.170532    Uiso  ? O
   O68        1.0     0.000000     0.875000     0.170532    Uiso  ? O
   O69        1.0     0.250000     0.125000     0.170532    Uiso  ? O
   O70        1.0     0.250000     0.375000     0.170532    Uiso  ? O
   O71        1.0     0.250000     0.625000     0.170532    Uiso  ? O
   O72        1.0     0.250000     0.875000     0.170532    Uiso  ? O
   O73        1.0     0.500000     0.125000     0.170532    Uiso  ? O
   O74        1.0     0.500000     0.375000     0.170532    Uiso  ? O
   O75        1.0     0.500000     0.625000     0.170532    Uiso  ? O
   O76        1.0     0.500000     0.875000     0.170532    Uiso  ? O
   O77        1.0     0.750000     0.125000     0.170532    Uiso  ? O
   O78        1.0     0.750000     0.375000     0.170532    Uiso  ? O
   O79        1.0     0.750000     0.625000     0.170532    Uiso  ? O
   O80        1.0     0.750000     0.875000     0.170532    Uiso  ? O
   Pt1        1.0     -0.000000     0.000000     0.512468    Uiso  ? Pt
   Pt2        1.0     0.000000     0.250000     0.512468    Uiso  ? Pt
   Pt3        1.0     0.000000     0.500000     0.512468    Uiso  ? Pt
   Pt4        1.0     0.000000     0.750000     0.512468    Uiso  ? Pt
   Pt5        1.0     0.250000     0.000000     0.512468    Uiso  ? Pt
   Pt6        1.0     0.250000     0.250000     0.512468    Uiso  ? Pt
   Pt7        1.0     0.250000     0.500000     0.512468    Uiso  ? Pt
   Pt8        1.0     0.250000     0.750000     0.512468    Uiso  ? Pt
   Pt9        1.0     0.500000     0.000000     0.512468    Uiso  ? Pt
   Pt10       1.0     0.500000     0.250000     0.512468    Uiso  ? Pt
   Pt11       1.0     0.500000     0.500000     0.512468    Uiso  ? Pt
   Pt12       1.0     0.500000     0.750000     0.512468    Uiso  ? Pt
   Pt13       1.0     0.750000     -0.000000     0.512468    Uiso  ? Pt
   Pt14       1.0     0.750000     0.250000     0.512468    Uiso  ? Pt
   Pt15       1.0     0.750000     0.500000     0.512468    Uiso  ? Pt
   Pt16       1.0     0.750000     0.750000     0.512468    Uiso  ? Pt
   Pt17       1.0     0.000000     -0.000000     0.828597    Uiso  ? Pt
   Pt18       1.0     -0.000000     0.250000     0.828597    Uiso  ? Pt
   Pt19       1.0     -0.000000     0.500000     0.828597    Uiso  ? Pt
   Pt20       1.0     -0.000000     0.750000     0.828597    Uiso  ? Pt
   Pt21       1.0     0.250000     -0.000000     0.828597    Uiso  ? Pt
   Pt22       1.0     0.250000     0.250000     0.828597    Uiso  ? Pt
   Pt23       1.0     0.250000     0.500000     0.828597    Uiso  ? Pt
   Pt24       1.0     0.250000     0.750000     0.828597    Uiso  ? Pt
   Pt25       1.0     0.500000     -0.000000     0.828597    Uiso  ? Pt
   Pt26       1.0     0.500000     0.250000     0.828597    Uiso  ? Pt
   Pt27       1.0     0.500000     0.500000     0.828597    Uiso  ? Pt
   Pt28       1.0     0.500000     0.750000     0.828597    Uiso  ? Pt
   Pt29       1.0     0.750000     0.000000     0.828597    Uiso  ? Pt
   Pt30       1.0     0.750000     0.250000     0.828597    Uiso  ? Pt
   Pt31       1.0     0.750000     0.500000     0.828597    Uiso  ? Pt
   Pt32       1.0     0.750000     0.750000     0.828597    Uiso  ? Pt
   Pt33       1.0     0.000000     0.125000     0.670532    Uiso  ? Pt
   Pt34       1.0     -0.000000     0.375000     0.670532    Uiso  ? Pt
   Pt35       1.0     0.000000     0.625000     0.670532    Uiso  ? Pt
   Pt36       1.0     -0.000000     0.875000     0.670532    Uiso  ? Pt
   Pt37       1.0     0.250000     0.125000     0.670532    Uiso  ? Pt
   Pt38       1.0     0.250000     0.375000     0.670532    Uiso  ? Pt
   Pt39       1.0     0.250000     0.625000     0.670532    Uiso  ? Pt
   Pt40       1.0     0.250000     0.875000     0.670532    Uiso  ? Pt
   Pt41       1.0     0.500000     0.125000     0.670532    Uiso  ? Pt
   Pt42       1.0     0.500000     0.375000     0.670532    Uiso  ? Pt
   Pt43       1.0     0.500000     0.625000     0.670532    Uiso  ? Pt
   Pt44       1.0     0.500000     0.875000     0.670532    Uiso  ? Pt
   Pt45       1.0     0.750000     0.125000     0.670532    Uiso  ? Pt
   Pt46       1.0     0.750000     0.375000     0.670532    Uiso  ? Pt
   Pt47       1.0     0.750000     0.625000     0.670532    Uiso  ? Pt
   Pt48       1.0     0.750000     0.875000     0.670532    Uiso  ? Pt
   Pt49       1.0     0.125000     -0.000000     0.670532    Uiso  ? Pt
   Pt50       1.0     0.125000     0.250000     0.670532    Uiso  ? Pt
   Pt51       1.0     0.125000     0.500000     0.670532    Uiso  ? Pt
   Pt52       1.0     0.125000     0.750000     0.670532    Uiso  ? Pt
   Pt53       1.0     0.375000     0.000000     0.670532    Uiso  ? Pt
   Pt54       1.0     0.375000     0.250000     0.670532    Uiso  ? Pt
   Pt55       1.0     0.375000     0.500000     0.670532    Uiso  ? Pt
   Pt56       1.0     0.375000     0.750000     0.670532    Uiso  ? Pt
   Pt57       1.0     0.625000     -0.000000     0.670532    Uiso  ? Pt
   Pt58       1.0     0.625000     0.250000     0.670532    Uiso  ? Pt
   Pt59       1.0     0.625000     0.500000     0.670532    Uiso  ? Pt
   Pt60       1.0     0.625000     0.750000     0.670532    Uiso  ? Pt
   Pt61       1.0     0.875000     0.000000     0.670532    Uiso  ? Pt
   Pt62       1.0     0.875000     0.250000     0.670532    Uiso  ? Pt
   Pt63       1.0     0.875000     0.500000     0.670532    Uiso  ? Pt
   Pt64       1.0     0.875000     0.750000     0.670532    Uiso  ? Pt
   Pt65       1.0     0.125000     0.125000     0.512468    Uiso  ? Pt
   Pt66       1.0     0.125000     0.375000     0.512468    Uiso  ? Pt
   Pt67       1.0     0.125000     0.625000     0.512468    Uiso  ? Pt
   Pt68       1.0     0.125000     0.875000     0.512468    Uiso  ? Pt
   Pt69       1.0     0.375000     0.125000     0.512468    Uiso  ? Pt
   Pt70       1.0     0.375000     0.375000     0.512468    Uiso  ? Pt
   Pt71       1.0     0.375000     0.625000     0.512468    Uiso  ? Pt
   Pt72       1.0     0.375000     0.875000     0.512468    Uiso  ? Pt
   Pt73       1.0     0.625000     0.125000     0.512468    Uiso  ? Pt
   Pt74       1.0     0.625000     0.375000     0.512468    Uiso  ? Pt
   Pt75       1.0     0.625000     0.625000     0.512468    Uiso  ? Pt
   Pt76       1.0     0.625000     0.875000     0.512468    Uiso  ? Pt
   Pt77       1.0     0.875000     0.125000     0.512468    Uiso  ? Pt
   Pt78       1.0     0.875000     0.375000     0.512468    Uiso  ? Pt
   Pt79       1.0     0.875000     0.625000     0.512468    Uiso  ? Pt
   Pt80       1.0     0.875000     0.875000     0.512468    Uiso  ? Pt
   Pt81       1.0     0.125000     0.125000     0.828597    Uiso  ? Pt
   Pt82       1.0     0.125000     0.375000     0.828597    Uiso  ? Pt
   Pt83       1.0     0.125000     0.625000     0.828597    Uiso  ? Pt
   Pt84       1.0     0.125000     0.875000     0.828597    Uiso  ? Pt
   Pt85       1.0     0.375000     0.125000     0.828597    Uiso  ? Pt
   Pt86       1.0     0.375000     0.375000     0.828597    Uiso  ? Pt
   Pt87       1.0     0.375000     0.625000     0.828597    Uiso  ? Pt
   Pt88       1.0     0.375000     0.875000     0.828597    Uiso  ? Pt
   Pt89       1.0     0.625000     0.125000     0.828597    Uiso  ? Pt
   Pt90       1.0     0.625000     0.375000     0.828597    Uiso  ? Pt
   Pt91       1.0     0.625000     0.625000     0.828597    Uiso  ? Pt
   Pt92       1.0     0.625000     0.875000     0.828597    Uiso  ? Pt
   Pt93       1.0     0.875000     0.125000     0.828597    Uiso  ? Pt
   Pt94       1.0     0.875000     0.375000     0.828597    Uiso  ? Pt
   Pt95       1.0     0.875000     0.625000     0.828597    Uiso  ? Pt
   Pt96       1.0     0.875000     0.875000     0.828597    Uiso  ? Pt
