
#======================================================================
# CRYSTAL DATA
#----------------------------------------------------------------------
data_VESTA_phase_1

_chemical_name_common                  'isodistort-output10                   '
_cell_length_a                         5.800807
_cell_length_b                         35.035782
_cell_length_c                         11.912543
_cell_angle_alpha                      90.000000
_cell_angle_beta                       90.000000
_cell_angle_gamma                      90.000046
_cell_volume                           2421.055171
_space_group_name_H-M_alt              'P 1'
_space_group_IT_number                 1

loop_
_space_group_symop_operation_xyz
   'x, y, z'

loop_
   _atom_site_label
   _atom_site_occupancy
   _atom_site_fract_x
   _atom_site_fract_y
   _atom_site_fract_z
   _atom_site_adp_type
   _atom_site_U_iso_or_equiv
   _atom_site_type_symbol
   Pb1        1.0     0.230596     0.748009     0.189797    Uiso  ? Pb
   Pb2        1.0     0.741629     0.663648     0.189797    Uiso  ? Pb
   Pb3        1.0     0.222896     0.923377     0.189797    Uiso  ? Pb
   Pb4        1.0     0.722896     0.826623     0.189797    Uiso  ? Pb
   Pb5        1.0     0.241629     0.086352     0.189797    Uiso  ? Pb
   Pb6        1.0     0.722895     0.326623     0.189797    Uiso  ? Pb
   Pb7        1.0     0.230591     0.248009     0.189797    Uiso  ? Pb
   Pb8        1.0     0.730593     0.501992     0.189797    Uiso  ? Pb
   Pb9        1.0     0.222895     0.423377     0.189797    Uiso  ? Pb
   Pb10       1.0     0.730596     0.001991     0.189797    Uiso  ? Pb
   Pb11       1.0     0.241626     0.586353     0.189797    Uiso  ? Pb
   Pb12       1.0     0.741626     0.163648     0.189797    Uiso  ? Pb
   Zr1        1.0     0.758169     0.747424     0.362881    Uiso  ? Zr
   Zr2        1.0     0.226715     0.668354     0.019151    Uiso  ? Zr
   Zr3        1.0     0.226715     0.668354     0.360444    Uiso  ? Zr
   Zr4        1.0     0.758169     0.747424     0.016714    Uiso  ? Zr
   Zr5        1.0     0.755342     0.917033     0.019787    Uiso  ? Zr
   Zr6        1.0     0.255342     0.832967     0.359808    Uiso  ? Zr
   Zr7        1.0     0.255342     0.832967     0.019787    Uiso  ? Zr
   Zr8        1.0     0.755342     0.917033     0.359808    Uiso  ? Zr
   Zr9        1.0     0.726714     0.081647     0.360444    Uiso  ? Zr
   Zr10       1.0     0.255342     0.332967     0.019786    Uiso  ? Zr
   Zr11       1.0     0.255342     0.332967     0.359808    Uiso  ? Zr
   Zr12       1.0     0.726714     0.081647     0.019151    Uiso  ? Zr
   Zr13       1.0     0.758168     0.247423     0.016713    Uiso  ? Zr
   Zr14       1.0     0.258168     0.502577     0.362882    Uiso  ? Zr
   Zr15       1.0     0.258168     0.502577     0.016713    Uiso  ? Zr
   Zr16       1.0     0.758168     0.247423     0.362882    Uiso  ? Zr
   Zr17       1.0     0.755342     0.417033     0.359808    Uiso  ? Zr
   Zr18       1.0     0.258170     0.002577     0.016714    Uiso  ? Zr
   Zr19       1.0     0.258170     0.002577     0.362881    Uiso  ? Zr
   Zr20       1.0     0.755342     0.417033     0.019787    Uiso  ? Zr
   Zr21       1.0     0.726714     0.581646     0.019151    Uiso  ? Zr
   Zr22       1.0     0.226714     0.168354     0.360444    Uiso  ? Zr
   Zr23       1.0     0.226714     0.168354     0.019150    Uiso  ? Zr
   Zr24       1.0     0.726714     0.581646     0.360444    Uiso  ? Zr
   O1         1.0     0.483827     0.709801     0.352757    Uiso  ? O
   O2         1.0     0.483827     0.709801     0.026838    Uiso  ? O
   O3         1.0     0.992823     0.872556     0.028445    Uiso  ? O
   O4         1.0     0.992823     0.872556     0.351150    Uiso  ? O
   O5         1.0     0.487717     0.042616     0.307311    Uiso  ? O
   O6         1.0     0.492820     0.377445     0.028445    Uiso  ? O
   O7         1.0     0.492820     0.377445     0.351150    Uiso  ? O
   O8         1.0     0.487717     0.042616     0.072284    Uiso  ? O
   O9         1.0    -0.012284     0.207384     0.072282    Uiso  ? O
   O10        1.0    -0.016175     0.540199     0.352761    Uiso  ? O
   O11        1.0    -0.016175     0.540199     0.026834    Uiso  ? O
   O12        1.0    -0.012284     0.207384     0.307313    Uiso  ? O
   O13        1.0     0.492823     0.877444     0.351150    Uiso  ? O
   O14        1.0     0.487717     0.542616     0.072282    Uiso  ? O
   O15        1.0     0.487717     0.542616     0.307313    Uiso  ? O
   O16        1.0     0.492823     0.877444     0.028445    Uiso  ? O
   O17        1.0    -0.016173     0.040199     0.026839    Uiso  ? O
   O18        1.0    -0.012283     0.707384     0.307312    Uiso  ? O
   O19        1.0    -0.012283     0.707384     0.072283    Uiso  ? O
   O20        1.0    -0.016173     0.040199     0.352756    Uiso  ? O
   O21        1.0     0.483825     0.209801     0.352760    Uiso  ? O
   O22        1.0     0.483825     0.209801     0.026834    Uiso  ? O
   O23        1.0     0.992820     0.372555     0.028445    Uiso  ? O
   O24        1.0     0.992820     0.372555     0.351150    Uiso  ? O
   O25        1.0     0.527895     0.793501     0.361217    Uiso  ? O
   O26        1.0     0.462981     0.622356     0.021541    Uiso  ? O
   O27        1.0     0.462981     0.622356     0.358053    Uiso  ? O
   O28        1.0     0.527895     0.793501     0.018378    Uiso  ? O
   O29        1.0     0.027894     0.956500     0.018378    Uiso  ? O
   O30        1.0     0.024274     0.787858     0.356604    Uiso  ? O
   O31        1.0     0.024274     0.787858     0.022991    Uiso  ? O
   O32        1.0     0.027894     0.956500     0.361217    Uiso  ? O
   O33        1.0     0.462982     0.122356     0.358052    Uiso  ? O
   O34        1.0     0.527895     0.293501     0.018378    Uiso  ? O
   O35        1.0     0.527895     0.293501     0.361217    Uiso  ? O
   O36        1.0     0.462982     0.122356     0.021543    Uiso  ? O
   O37        1.0     0.024274     0.287858     0.022991    Uiso  ? O
   O38        1.0     0.027895     0.456500     0.361217    Uiso  ? O
   O39        1.0     0.027895     0.456500     0.018378    Uiso  ? O
   O40        1.0     0.024274     0.287858     0.356603    Uiso  ? O
   O41        1.0     0.524274     0.462142     0.356604    Uiso  ? O
   O42        1.0     0.524273     0.962142     0.022992    Uiso  ? O
   O43        1.0     0.524273     0.962142     0.356603    Uiso  ? O
   O44        1.0     0.524274     0.462142     0.022991    Uiso  ? O
   O45        1.0     0.962982     0.627644     0.021543    Uiso  ? O
   O46        1.0     0.962981     0.127644     0.358053    Uiso  ? O
   O47        1.0     0.962981     0.127644     0.021542    Uiso  ? O
   O48        1.0     0.962982     0.627644     0.358052    Uiso  ? O
   O49        1.0     0.733402     0.758954     0.189797    Uiso  ? O
   O50        1.0     0.266012     0.659440     0.189797    Uiso  ? O
   O51        1.0     0.782936     0.921136     0.189797    Uiso  ? O
   O52        1.0     0.282935     0.828864     0.189797    Uiso  ? O
   O53        1.0     0.766012     0.090560     0.189797    Uiso  ? O
   O54        1.0     0.282934     0.328864     0.189797    Uiso  ? O
   O55        1.0     0.733401     0.258953     0.189797    Uiso  ? O
   O56        1.0     0.233401     0.491047     0.189797    Uiso  ? O
   O57        1.0     0.782934     0.421136     0.189797    Uiso  ? O
   O58        1.0     0.233401     0.991047     0.189797    Uiso  ? O
   O59        1.0     0.766013     0.590559     0.189797    Uiso  ? O
   O60        1.0     0.266013     0.159442     0.189797    Uiso  ? O
   Pt1        1.0     0.009952     0.046195     0.531212    Uiso  ? Pt
   Pt2        1.0     0.984979     0.126323     0.530385    Uiso  ? Pt
   Pt3        1.0     0.004100     0.210849     0.560450    Uiso  ? Pt
   Pt4        1.0     0.008931     0.289305     0.533027    Uiso  ? Pt
   Pt5        1.0     0.002203     0.372413     0.529722    Uiso  ? Pt
   Pt6        1.0     0.032093     0.450904     0.533821    Uiso  ? Pt
   Pt7        1.0     0.009970     0.546199     0.531215    Uiso  ? Pt
   Pt8        1.0     0.984968     0.626326     0.530384    Uiso  ? Pt
   Pt9        1.0     0.004102     0.710850     0.560447    Uiso  ? Pt
   Pt10       1.0     0.008927     0.789306     0.533026    Uiso  ? Pt
   Pt11       1.0     0.002202     0.872414     0.529722    Uiso  ? Pt
   Pt12       1.0     0.032087     0.950904     0.533821    Uiso  ? Pt
   Pt13       1.0     0.504101     0.039150     0.560447    Uiso  ? Pt
   Pt14       1.0     0.484967     0.123674     0.530384    Uiso  ? Pt
   Pt15       1.0     0.509971     0.203801     0.531216    Uiso  ? Pt
   Pt16       1.0     0.532093     0.299097     0.533821    Uiso  ? Pt
   Pt17       1.0     0.502203     0.377587     0.529722    Uiso  ? Pt
   Pt18       1.0     0.508931     0.460696     0.533027    Uiso  ? Pt
   Pt19       1.0     0.504101     0.539151     0.560450    Uiso  ? Pt
   Pt20       1.0     0.484979     0.623677     0.530385    Uiso  ? Pt
   Pt21       1.0     0.509954     0.703804     0.531212    Uiso  ? Pt
   Pt22       1.0     0.532088     0.799096     0.533821    Uiso  ? Pt
   Pt23       1.0     0.502201     0.877587     0.529722    Uiso  ? Pt
   Pt24       1.0     0.508926     0.960694     0.533026    Uiso  ? Pt
   Pt25       1.0     0.009952     0.046195     0.848381    Uiso  ? Pt
   Pt26       1.0     0.984979     0.126323     0.849207    Uiso  ? Pt
   Pt27       1.0     0.004100     0.210849     0.819142    Uiso  ? Pt
   Pt28       1.0     0.008931     0.289305     0.846566    Uiso  ? Pt
   Pt29       1.0     0.002203     0.372413     0.849871    Uiso  ? Pt
   Pt30       1.0     0.032093     0.450904     0.845771    Uiso  ? Pt
   Pt31       1.0     0.009970     0.546199     0.848377    Uiso  ? Pt
   Pt32       1.0     0.984968     0.626326     0.849208    Uiso  ? Pt
   Pt33       1.0     0.004102     0.710850     0.819145    Uiso  ? Pt
   Pt34       1.0     0.008927     0.789306     0.846566    Uiso  ? Pt
   Pt35       1.0     0.002202     0.872414     0.849871    Uiso  ? Pt
   Pt36       1.0     0.032087     0.950904     0.845771    Uiso  ? Pt
   Pt37       1.0     0.504101     0.039150     0.819145    Uiso  ? Pt
   Pt38       1.0     0.484967     0.123674     0.849208    Uiso  ? Pt
   Pt39       1.0     0.509971     0.203801     0.848377    Uiso  ? Pt
   Pt40       1.0     0.532093     0.299097     0.845771    Uiso  ? Pt
   Pt41       1.0     0.502203     0.377587     0.849871    Uiso  ? Pt
   Pt42       1.0     0.508931     0.460696     0.846566    Uiso  ? Pt
   Pt43       1.0     0.504101     0.539151     0.819142    Uiso  ? Pt
   Pt44       1.0     0.484979     0.623677     0.849207    Uiso  ? Pt
   Pt45       1.0     0.509954     0.703804     0.848380    Uiso  ? Pt
   Pt46       1.0     0.532088     0.799096     0.845771    Uiso  ? Pt
   Pt47       1.0     0.502201     0.877587     0.849870    Uiso  ? Pt
   Pt48       1.0     0.508926     0.960694     0.846566    Uiso  ? Pt
   Pt49       1.0     0.233088    -0.003717     0.689796    Uiso  ? Pt
   Pt50       1.0     0.232699     0.084640     0.689796    Uiso  ? Pt
   Pt51       1.0     0.253365     0.163606     0.689796    Uiso  ? Pt
   Pt52       1.0     0.282257     0.253333     0.689796    Uiso  ? Pt
   Pt53       1.0     0.257850     0.333815     0.689796    Uiso  ? Pt
   Pt54       1.0     0.262156     0.414203     0.689796    Uiso  ? Pt
   Pt55       1.0     0.233090     0.496283     0.689796    Uiso  ? Pt
   Pt56       1.0     0.232703     0.584644     0.689796    Uiso  ? Pt
   Pt57       1.0     0.253365     0.663608     0.689796    Uiso  ? Pt
   Pt58       1.0     0.282253     0.753334     0.689796    Uiso  ? Pt
   Pt59       1.0     0.257847     0.833815     0.689796    Uiso  ? Pt
   Pt60       1.0     0.262153     0.914204     0.689796    Uiso  ? Pt
   Pt61       1.0     0.782252    -0.003333     0.689796    Uiso  ? Pt
   Pt62       1.0     0.753365     0.086392     0.689796    Uiso  ? Pt
   Pt63       1.0     0.732703     0.165357     0.689796    Uiso  ? Pt
   Pt64       1.0     0.733090     0.253718     0.689796    Uiso  ? Pt
   Pt65       1.0     0.762157     0.335797     0.689796    Uiso  ? Pt
   Pt66       1.0     0.757850     0.416186     0.689796    Uiso  ? Pt
   Pt67       1.0     0.782257     0.496667     0.689796    Uiso  ? Pt
   Pt68       1.0     0.753366     0.586394     0.689796    Uiso  ? Pt
   Pt69       1.0     0.732700     0.665360     0.689796    Uiso  ? Pt
   Pt70       1.0     0.733089     0.753717     0.689796    Uiso  ? Pt
   Pt71       1.0     0.762154     0.835796     0.689796    Uiso  ? Pt
   Pt72       1.0     0.757847     0.916185     0.689796    Uiso  ? Pt
