
#======================================================================
# CRYSTAL DATA
#----------------------------------------------------------------------
data_VESTA_phase_1

_chemical_name_common                  'isocif-output                         '
_cell_length_a                         16.490572
_cell_length_b                         16.490572
_cell_length_c                         11.806285
_cell_angle_alpha                      90.000000
_cell_angle_beta                       90.000000
_cell_angle_gamma                      90.383347
_cell_volume                           3210.517026
_space_group_name_H-M_alt              'P 1'
_space_group_IT_number                 1

loop_
_space_group_symop_operation_xyz
   'x, y, z'

loop_
   _atom_site_label
   _atom_site_occupancy
   _atom_site_fract_x
   _atom_site_fract_y
   _atom_site_fract_z
   _atom_site_adp_type
   _atom_site_U_iso_or_equiv
   _atom_site_type_symbol
   Pb1        1.0     0.261863     0.378405     0.190024    Uiso  ? Pb
   Pb2        1.0     0.761863     0.878405     0.190024    Uiso  ? Pb
   Pb3        1.0     0.011863     0.128405     0.190024    Uiso  ? Pb
   Pb4        1.0     0.511863     0.628405     0.190024    Uiso  ? Pb
   Pb5        1.0     0.988137     0.871595     0.190024    Uiso  ? Pb
   Pb6        1.0     0.488137     0.371595     0.190024    Uiso  ? Pb
   Pb7        1.0     0.738137     0.621595     0.190024    Uiso  ? Pb
   Pb8        1.0     0.238137     0.121595     0.190024    Uiso  ? Pb
   Pb9        1.0    -0.003405     0.613137     0.190024    Uiso  ? Pb
   Pb10       1.0     0.496595     0.113137     0.190024    Uiso  ? Pb
   Pb11       1.0     0.746595     0.363137     0.190024    Uiso  ? Pb
   Pb12       1.0     0.246595     0.863137     0.190024    Uiso  ? Pb
   Pb13       1.0     0.253405     0.636863     0.190024    Uiso  ? Pb
   Pb14       1.0     0.753405     0.136863     0.190024    Uiso  ? Pb
   Pb15       1.0     0.003405     0.386863     0.190024    Uiso  ? Pb
   Pb16       1.0     0.503405     0.886863     0.190024    Uiso  ? Pb
   Zr1        1.0     0.375141     0.500908     0.363102    Uiso  ? Zr
   Zr2        1.0     0.875141     0.000908     0.363102    Uiso  ? Zr
   Zr3        1.0     0.125141     0.250908     0.363102    Uiso  ? Zr
   Zr4        1.0     0.625141     0.750908     0.363102    Uiso  ? Zr
   Zr5        1.0     0.874859     0.749092     0.016947    Uiso  ? Zr
   Zr6        1.0     0.374859     0.249092     0.016947    Uiso  ? Zr
   Zr7        1.0     0.624859     0.499092     0.016947    Uiso  ? Zr
   Zr8        1.0     0.124859     0.999092     0.016947    Uiso  ? Zr
   Zr9        1.0     0.874859     0.749092     0.363102    Uiso  ? Zr
   Zr10       1.0     0.374859     0.249092     0.363102    Uiso  ? Zr
   Zr11       1.0     0.624859     0.499092     0.363102    Uiso  ? Zr
   Zr12       1.0     0.124859     0.999092     0.363102    Uiso  ? Zr
   Zr13       1.0     0.375141     0.500908     0.016947    Uiso  ? Zr
   Zr14       1.0     0.875141     0.000908     0.016947    Uiso  ? Zr
   Zr15       1.0     0.125141     0.250908     0.016947    Uiso  ? Zr
   Zr16       1.0     0.625141     0.750908     0.016947    Uiso  ? Zr
   Zr17       1.0     0.124092     0.749859     0.016947    Uiso  ? Zr
   Zr18       1.0     0.624092     0.249859     0.016947    Uiso  ? Zr
   Zr19       1.0     0.874092     0.499859     0.016947    Uiso  ? Zr
   Zr20       1.0     0.374092    -0.000141     0.016947    Uiso  ? Zr
   Zr21       1.0     0.125908     0.500141     0.363102    Uiso  ? Zr
   Zr22       1.0     0.625908     0.000141     0.363102    Uiso  ? Zr
   Zr23       1.0     0.875908     0.250141     0.363102    Uiso  ? Zr
   Zr24       1.0     0.375908     0.750141     0.363102    Uiso  ? Zr
   Zr25       1.0     0.125908     0.500141     0.016947    Uiso  ? Zr
   Zr26       1.0     0.625908     0.000141     0.016947    Uiso  ? Zr
   Zr27       1.0     0.875908     0.250141     0.016947    Uiso  ? Zr
   Zr28       1.0     0.375908     0.750141     0.016947    Uiso  ? Zr
   Zr29       1.0     0.124092     0.749859     0.363102    Uiso  ? Zr
   Zr30       1.0     0.624092     0.249859     0.363102    Uiso  ? Zr
   Zr31       1.0     0.874092     0.499859     0.363102    Uiso  ? Zr
   Zr32       1.0     0.374092    -0.000141     0.363102    Uiso  ? Zr
   O1         1.0     0.500000     0.500000     0.353057    Uiso  ? O
   O2         1.0     -0.000000     -0.000000     0.353057    Uiso  ? O
   O3         1.0     0.250000     0.250000     0.353057    Uiso  ? O
   O4         1.0     0.750000     0.750000     0.353057    Uiso  ? O
   O5         1.0     0.500000     0.500000     0.026992    Uiso  ? O
   O6         1.0     -0.000000     -0.000000     0.026992    Uiso  ? O
   O7         1.0     0.250000     0.250000     0.026992    Uiso  ? O
   O8         1.0     0.750000     0.750000     0.026992    Uiso  ? O
   O9         1.0     0.125000     0.625000     0.026992    Uiso  ? O
   O10        1.0     0.625000     0.125000     0.026992    Uiso  ? O
   O11        1.0     0.875000     0.375000     0.026992    Uiso  ? O
   O12        1.0     0.375000     0.875000     0.026992    Uiso  ? O
   O13        1.0     0.125000     0.625000     0.353057    Uiso  ? O
   O14        1.0     0.625000     0.125000     0.353057    Uiso  ? O
   O15        1.0     0.875000     0.375000     0.353057    Uiso  ? O
   O16        1.0     0.375000     0.875000     0.353057    Uiso  ? O
   O17        1.0     0.250000     0.750000     0.357417    Uiso  ? O
   O18        1.0     0.750000     0.250000     0.357417    Uiso  ? O
   O19        1.0     0.000000     0.500000     0.357417    Uiso  ? O
   O20        1.0     0.500000     -0.000000     0.357417    Uiso  ? O
   O21        1.0     0.250000     0.750000     0.022631    Uiso  ? O
   O22        1.0     0.750000     0.250000     0.022631    Uiso  ? O
   O23        1.0     0.000000     0.500000     0.022631    Uiso  ? O
   O24        1.0     0.500000     -0.000000     0.022631    Uiso  ? O
   O25        1.0     0.375000     0.375000     0.022631    Uiso  ? O
   O26        1.0     0.875000     0.875000     0.022631    Uiso  ? O
   O27        1.0     0.125000     0.125000     0.022631    Uiso  ? O
   O28        1.0     0.625000     0.625000     0.022631    Uiso  ? O
   O29        1.0     0.375000     0.375000     0.357417    Uiso  ? O
   O30        1.0     0.875000     0.875000     0.357417    Uiso  ? O
   O31        1.0     0.125000     0.125000     0.357417    Uiso  ? O
   O32        1.0     0.625000     0.625000     0.357417    Uiso  ? O
   O33        1.0     0.369889     0.624663     0.347037    Uiso  ? O
   O34        1.0     0.869889     0.124663     0.347037    Uiso  ? O
   O35        1.0     0.119889     0.374663     0.347037    Uiso  ? O
   O36        1.0     0.619889     0.874663     0.347037    Uiso  ? O
   O37        1.0     0.880111     0.625337     0.033012    Uiso  ? O
   O38        1.0     0.380111     0.125337     0.033012    Uiso  ? O
   O39        1.0     0.630111     0.375337     0.033012    Uiso  ? O
   O40        1.0     0.130111     0.875337     0.033012    Uiso  ? O
   O41        1.0     0.880111     0.625337     0.347037    Uiso  ? O
   O42        1.0     0.380111     0.125337     0.347037    Uiso  ? O
   O43        1.0     0.630111     0.375337     0.347037    Uiso  ? O
   O44        1.0     0.130111     0.875337     0.347037    Uiso  ? O
   O45        1.0     0.369889     0.624663     0.033012    Uiso  ? O
   O46        1.0     0.869889     0.124663     0.033012    Uiso  ? O
   O47        1.0     0.119889     0.374663     0.033012    Uiso  ? O
   O48        1.0     0.619889     0.874663     0.033012    Uiso  ? O
   O49        1.0     0.000337     0.755111     0.033012    Uiso  ? O
   O50        1.0     0.500337     0.255111     0.033012    Uiso  ? O
   O51        1.0     0.750337     0.505111     0.033012    Uiso  ? O
   O52        1.0     0.250337     0.005111     0.033012    Uiso  ? O
   O53        1.0     0.249663     0.494889     0.347037    Uiso  ? O
   O54        1.0     0.749663     0.994889     0.347037    Uiso  ? O
   O55        1.0    -0.000337     0.244889     0.347037    Uiso  ? O
   O56        1.0     0.499663     0.744889     0.347037    Uiso  ? O
   O57        1.0     0.249663     0.494889     0.033012    Uiso  ? O
   O58        1.0     0.749663     0.994889     0.033012    Uiso  ? O
   O59        1.0    -0.000337     0.244889     0.033012    Uiso  ? O
   O60        1.0     0.499663     0.744889     0.033012    Uiso  ? O
   O61        1.0     0.000337     0.755111     0.347037    Uiso  ? O
   O62        1.0     0.500337     0.255111     0.347037    Uiso  ? O
   O63        1.0     0.750337     0.505111     0.347037    Uiso  ? O
   O64        1.0     0.250337     0.005111     0.347037    Uiso  ? O
   O65        1.0     0.375904     0.484860     0.190024    Uiso  ? O
   O66        1.0     0.875904     0.984860     0.190024    Uiso  ? O
   O67        1.0     0.125904     0.234860     0.190024    Uiso  ? O
   O68        1.0     0.625904     0.734860     0.190024    Uiso  ? O
   O69        1.0     0.874096     0.765140     0.190024    Uiso  ? O
   O70        1.0     0.374096     0.265140     0.190024    Uiso  ? O
   O71        1.0     0.624096     0.515140     0.190024    Uiso  ? O
   O72        1.0     0.124096     0.015140     0.190024    Uiso  ? O
   O73        1.0     0.140140     0.749096     0.190024    Uiso  ? O
   O74        1.0     0.640140     0.249096     0.190024    Uiso  ? O
   O75        1.0     0.890140     0.499096     0.190024    Uiso  ? O
   O76        1.0     0.390140    -0.000904     0.190024    Uiso  ? O
   O77        1.0     0.109860     0.500904     0.190024    Uiso  ? O
   O78        1.0     0.609860     0.000904     0.190024    Uiso  ? O
   O79        1.0     0.859860     0.250904     0.190024    Uiso  ? O
   O80        1.0     0.359860     0.750904     0.190024    Uiso  ? O
   Pt1        1.0     -0.000000     -0.000000     0.533058    Uiso  ? Pt
   Pt2        1.0     0.000261     0.247759     0.531427    Uiso  ? Pt
   Pt3        1.0     0.000000     0.500000     0.534499    Uiso  ? Pt
   Pt4        1.0    -0.000261     0.752241     0.531427    Uiso  ? Pt
   Pt5        1.0     0.249739     0.002241     0.531427    Uiso  ? Pt
   Pt6        1.0     0.250000     0.250000     0.533058    Uiso  ? Pt
   Pt7        1.0     0.250261     0.497759     0.531427    Uiso  ? Pt
   Pt8        1.0     0.250000     0.750000     0.534499    Uiso  ? Pt
   Pt9        1.0     0.500000     -0.000000     0.534499    Uiso  ? Pt
   Pt10       1.0     0.499739     0.252241     0.531427    Uiso  ? Pt
   Pt11       1.0     0.500000     0.500000     0.533058    Uiso  ? Pt
   Pt12       1.0     0.500261     0.747759     0.531427    Uiso  ? Pt
   Pt13       1.0     0.750261    -0.002241     0.531427    Uiso  ? Pt
   Pt14       1.0     0.750000     0.250000     0.534499    Uiso  ? Pt
   Pt15       1.0     0.749739     0.502241     0.531427    Uiso  ? Pt
   Pt16       1.0     0.750000     0.750000     0.533058    Uiso  ? Pt
   Pt17       1.0     -0.000000     -0.000000     0.846991    Uiso  ? Pt
   Pt18       1.0     0.000261     0.247759     0.848621    Uiso  ? Pt
   Pt19       1.0     0.000000     0.500000     0.845550    Uiso  ? Pt
   Pt20       1.0    -0.000261     0.752241     0.848621    Uiso  ? Pt
   Pt21       1.0     0.249739     0.002241     0.848621    Uiso  ? Pt
   Pt22       1.0     0.250000     0.250000     0.846991    Uiso  ? Pt
   Pt23       1.0     0.250261     0.497759     0.848621    Uiso  ? Pt
   Pt24       1.0     0.250000     0.750000     0.845550    Uiso  ? Pt
   Pt25       1.0     0.500000     -0.000000     0.845550    Uiso  ? Pt
   Pt26       1.0     0.499739     0.252241     0.848621    Uiso  ? Pt
   Pt27       1.0     0.500000     0.500000     0.846991    Uiso  ? Pt
   Pt28       1.0     0.500261     0.747759     0.848621    Uiso  ? Pt
   Pt29       1.0     0.750261    -0.002241     0.848621    Uiso  ? Pt
   Pt30       1.0     0.750000     0.250000     0.845550    Uiso  ? Pt
   Pt31       1.0     0.749739     0.502241     0.848621    Uiso  ? Pt
   Pt32       1.0     0.750000     0.750000     0.846991    Uiso  ? Pt
   Pt33       1.0    -0.001529     0.124285     0.690024    Uiso  ? Pt
   Pt34       1.0    -0.000715     0.373471     0.690024    Uiso  ? Pt
   Pt35       1.0     0.000715     0.626529     0.690024    Uiso  ? Pt
   Pt36       1.0     0.001529     0.875715     0.690024    Uiso  ? Pt
   Pt37       1.0     0.251529     0.125715     0.690024    Uiso  ? Pt
   Pt38       1.0     0.248471     0.374285     0.690024    Uiso  ? Pt
   Pt39       1.0     0.249285     0.623471     0.690024    Uiso  ? Pt
   Pt40       1.0     0.250715     0.876529     0.690024    Uiso  ? Pt
   Pt41       1.0     0.500715     0.126529     0.690024    Uiso  ? Pt
   Pt42       1.0     0.501529     0.375715     0.690024    Uiso  ? Pt
   Pt43       1.0     0.498471     0.624285     0.690024    Uiso  ? Pt
   Pt44       1.0     0.499285     0.873471     0.690024    Uiso  ? Pt
   Pt45       1.0     0.749285     0.123471     0.690024    Uiso  ? Pt
   Pt46       1.0     0.750715     0.376529     0.690024    Uiso  ? Pt
   Pt47       1.0     0.751529     0.625715     0.690024    Uiso  ? Pt
   Pt48       1.0     0.748471     0.874285     0.690024    Uiso  ? Pt
   Pt49       1.0     0.125376    -0.000033     0.690024    Uiso  ? Pt
   Pt50       1.0     0.124624     0.250033     0.690024    Uiso  ? Pt
   Pt51       1.0     0.125033     0.499624     0.690024    Uiso  ? Pt
   Pt52       1.0     0.124967     0.750376     0.690024    Uiso  ? Pt
   Pt53       1.0     0.374967     0.000376     0.690024    Uiso  ? Pt
   Pt54       1.0     0.375376     0.249967     0.690024    Uiso  ? Pt
   Pt55       1.0     0.374624     0.500033     0.690024    Uiso  ? Pt
   Pt56       1.0     0.375033     0.749624     0.690024    Uiso  ? Pt
   Pt57       1.0     0.625033    -0.000376     0.690024    Uiso  ? Pt
   Pt58       1.0     0.624967     0.250376     0.690024    Uiso  ? Pt
   Pt59       1.0     0.625376     0.499967     0.690024    Uiso  ? Pt
   Pt60       1.0     0.624624     0.750033     0.690024    Uiso  ? Pt
   Pt61       1.0     0.874624     0.000033     0.690024    Uiso  ? Pt
   Pt62       1.0     0.875033     0.249624     0.690024    Uiso  ? Pt
   Pt63       1.0     0.874967     0.500376     0.690024    Uiso  ? Pt
   Pt64       1.0     0.875376     0.749967     0.690024    Uiso  ? Pt
   Pt65       1.0     0.125000     0.125000     0.534499    Uiso  ? Pt
   Pt66       1.0     0.122759     0.375261     0.531427    Uiso  ? Pt
   Pt67       1.0     0.125000     0.625000     0.533058    Uiso  ? Pt
   Pt68       1.0     0.127241     0.874739     0.531427    Uiso  ? Pt
   Pt69       1.0     0.377241     0.124739     0.531427    Uiso  ? Pt
   Pt70       1.0     0.375000     0.375000     0.534499    Uiso  ? Pt
   Pt71       1.0     0.372759     0.625261     0.531427    Uiso  ? Pt
   Pt72       1.0     0.375000     0.875000     0.533058    Uiso  ? Pt
   Pt73       1.0     0.625000     0.125000     0.533058    Uiso  ? Pt
   Pt74       1.0     0.627241     0.374739     0.531427    Uiso  ? Pt
   Pt75       1.0     0.625000     0.625000     0.534499    Uiso  ? Pt
   Pt76       1.0     0.622759     0.875261     0.531427    Uiso  ? Pt
   Pt77       1.0     0.872759     0.125261     0.531427    Uiso  ? Pt
   Pt78       1.0     0.875000     0.375000     0.533058    Uiso  ? Pt
   Pt79       1.0     0.877241     0.624739     0.531427    Uiso  ? Pt
   Pt80       1.0     0.875000     0.875000     0.534499    Uiso  ? Pt
   Pt81       1.0     0.125000     0.125000     0.845550    Uiso  ? Pt
   Pt82       1.0     0.122759     0.375261     0.848621    Uiso  ? Pt
   Pt83       1.0     0.125000     0.625000     0.846991    Uiso  ? Pt
   Pt84       1.0     0.127241     0.874739     0.848621    Uiso  ? Pt
   Pt85       1.0     0.377241     0.124739     0.848621    Uiso  ? Pt
   Pt86       1.0     0.375000     0.375000     0.845550    Uiso  ? Pt
   Pt87       1.0     0.372759     0.625261     0.848621    Uiso  ? Pt
   Pt88       1.0     0.375000     0.875000     0.846991    Uiso  ? Pt
   Pt89       1.0     0.625000     0.125000     0.846991    Uiso  ? Pt
   Pt90       1.0     0.627241     0.374739     0.848621    Uiso  ? Pt
   Pt91       1.0     0.625000     0.625000     0.845550    Uiso  ? Pt
   Pt92       1.0     0.622759     0.875261     0.848621    Uiso  ? Pt
   Pt93       1.0     0.872759     0.125261     0.848621    Uiso  ? Pt
   Pt94       1.0     0.875000     0.375000     0.846991    Uiso  ? Pt
   Pt95       1.0     0.877241     0.624739     0.848621    Uiso  ? Pt
   Pt96       1.0     0.875000     0.875000     0.845550    Uiso  ? Pt
