
#======================================================================
# CRYSTAL DATA
#----------------------------------------------------------------------
data_VESTA_phase_1

_chemical_name_common                  'findsym-output                        '
_cell_length_a                         16.420637
_cell_length_b                         16.420872
_cell_length_c                         11.793687
_cell_angle_alpha                      90.000000
_cell_angle_beta                       90.000000
_cell_angle_gamma                      90.110001
_cell_volume                           3180.057737
_space_group_name_H-M_alt              'P 1'
_space_group_IT_number                 1

loop_
_space_group_symop_operation_xyz
   'x, y, z'

loop_
   _atom_site_label
   _atom_site_occupancy
   _atom_site_fract_x
   _atom_site_fract_y
   _atom_site_fract_z
   _atom_site_adp_type
   _atom_site_U_iso_or_equiv
   _atom_site_type_symbol
   Pb1        1.0     0.377123     0.240655     0.187330    Uiso  ? Pb
   Pb2        1.0     0.377123     0.740655     0.187330    Uiso  ? Pb
   Pb3        1.0     0.877123     0.240655     0.187330    Uiso  ? Pb
   Pb4        1.0     0.877123     0.740655     0.187330    Uiso  ? Pb
   Pb5        1.0     0.376794     0.005764     0.169343    Uiso  ? Pb
   Pb6        1.0     0.376794     0.505764     0.169343    Uiso  ? Pb
   Pb7        1.0     0.876794     0.005764     0.169343    Uiso  ? Pb
   Pb8        1.0     0.876794     0.505764     0.169343    Uiso  ? Pb
   Pb9        1.0     0.127123     0.990655     0.187330    Uiso  ? Pb
   Pb10       1.0     0.127123     0.490655     0.187330    Uiso  ? Pb
   Pb11       1.0     0.627123     0.990655     0.187330    Uiso  ? Pb
   Pb12       1.0     0.627123     0.490655     0.187330    Uiso  ? Pb
   Pb13       1.0     0.126794     0.255764     0.169343    Uiso  ? Pb
   Pb14       1.0     0.126794     0.755764     0.169343    Uiso  ? Pb
   Pb15       1.0     0.626794     0.255764     0.169343    Uiso  ? Pb
   Pb16       1.0     0.626794     0.755764     0.169343    Uiso  ? Pb
   Zr1        1.0     0.501988     0.122183     0.350999    Uiso  ? Zr
   Zr2        1.0     0.501988     0.622183     0.350999    Uiso  ? Zr
   Zr3        1.0     0.001988     0.122183     0.350999    Uiso  ? Zr
   Zr4        1.0     0.001988     0.622183     0.350999    Uiso  ? Zr
   Zr5        1.0     0.501672     0.374214     0.005828    Uiso  ? Zr
   Zr6        1.0     0.501672     0.874214     0.005828    Uiso  ? Zr
   Zr7        1.0     0.001672     0.374214     0.005828    Uiso  ? Zr
   Zr8        1.0     0.001672     0.874214     0.005828    Uiso  ? Zr
   Zr9        1.0     0.501590     0.372191     0.351515    Uiso  ? Zr
   Zr10       1.0     0.501590     0.872191     0.351515    Uiso  ? Zr
   Zr11       1.0     0.001590     0.372191     0.351515    Uiso  ? Zr
   Zr12       1.0     0.001590     0.872191     0.351515    Uiso  ? Zr
   Zr13       1.0     0.502069     0.124223     0.005246    Uiso  ? Zr
   Zr14       1.0     0.502069     0.624223     0.005246    Uiso  ? Zr
   Zr15       1.0     0.002069     0.124223     0.005246    Uiso  ? Zr
   Zr16       1.0     0.002069     0.624223     0.005246    Uiso  ? Zr
   Zr17       1.0     0.251672     0.124214     0.005828    Uiso  ? Zr
   Zr18       1.0     0.251672     0.624214     0.005828    Uiso  ? Zr
   Zr19       1.0     0.751672     0.124214     0.005828    Uiso  ? Zr
   Zr20       1.0     0.751672     0.624214     0.005828    Uiso  ? Zr
   Zr21       1.0     0.251988     0.372183     0.350999    Uiso  ? Zr
   Zr22       1.0     0.251988     0.872183     0.350999    Uiso  ? Zr
   Zr23       1.0     0.751988     0.372183     0.350999    Uiso  ? Zr
   Zr24       1.0     0.751988     0.872183     0.350999    Uiso  ? Zr
   Zr25       1.0     0.251590     0.122191     0.351515    Uiso  ? Zr
   Zr26       1.0     0.251590     0.622191     0.351515    Uiso  ? Zr
   Zr27       1.0     0.751590     0.122191     0.351515    Uiso  ? Zr
   Zr28       1.0     0.751590     0.622191     0.351515    Uiso  ? Zr
   Zr29       1.0     0.252069     0.374223     0.005246    Uiso  ? Zr
   Zr30       1.0     0.252069     0.874223     0.005246    Uiso  ? Zr
   Zr31       1.0     0.752069     0.374223     0.005246    Uiso  ? Zr
   Zr32       1.0     0.752069     0.874223     0.005246    Uiso  ? Zr
   O1         1.0     0.233600     0.373082     0.178219    Uiso  ? O
   O2         1.0     0.233600     0.873082     0.178219    Uiso  ? O
   O3         1.0     0.733600     0.373082     0.178219    Uiso  ? O
   O4         1.0     0.733600     0.873082     0.178219    Uiso  ? O
   O5         1.0     0.241641     0.248021     0.338932    Uiso  ? O
   O6         1.0     0.241641     0.748021     0.338932    Uiso  ? O
   O7         1.0     0.741641     0.248021     0.338932    Uiso  ? O
   O8         1.0     0.741641     0.748021     0.338932    Uiso  ? O
   O9         1.0     0.241897     0.498292     0.018226    Uiso  ? O
   O10        1.0     0.241897     0.998292     0.018226    Uiso  ? O
   O11        1.0     0.741897     0.498292     0.018226    Uiso  ? O
   O12        1.0     0.741897     0.998292     0.018226    Uiso  ? O
   O13        1.0     0.483600     0.123082     0.178219    Uiso  ? O
   O14        1.0     0.483600     0.623082     0.178219    Uiso  ? O
   O15        1.0     0.983600     0.123082     0.178219    Uiso  ? O
   O16        1.0     0.983600     0.623082     0.178219    Uiso  ? O
   O17        1.0     0.491897     0.248292     0.018226    Uiso  ? O
   O18        1.0     0.491897     0.748292     0.018226    Uiso  ? O
   O19        1.0     0.991897     0.248292     0.018226    Uiso  ? O
   O20        1.0     0.991897     0.748292     0.018226    Uiso  ? O
   O21        1.0     0.491641     0.498021     0.338932    Uiso  ? O
   O22        1.0     0.491641     0.998021     0.338932    Uiso  ? O
   O23        1.0     0.991641     0.498021     0.338932    Uiso  ? O
   O24        1.0     0.991641     0.998021     0.338932    Uiso  ? O
   O25        1.0     0.269967     0.123329     0.178586    Uiso  ? O
   O26        1.0     0.269967     0.623329     0.178586    Uiso  ? O
   O27        1.0     0.769967     0.123329     0.178586    Uiso  ? O
   O28        1.0     0.769967     0.623329     0.178586    Uiso  ? O
   O29        1.0     0.261642     0.248377     0.017867    Uiso  ? O
   O30        1.0     0.261642     0.748377     0.017867    Uiso  ? O
   O31        1.0     0.761642     0.248377     0.017867    Uiso  ? O
   O32        1.0     0.761642     0.748377     0.017867    Uiso  ? O
   O33        1.0     0.261911     0.498095     0.338476    Uiso  ? O
   O34        1.0     0.261911     0.998095     0.338476    Uiso  ? O
   O35        1.0     0.761911     0.498095     0.338476    Uiso  ? O
   O36        1.0     0.761911     0.998095     0.338476    Uiso  ? O
   O37        1.0     0.019967     0.373329     0.178586    Uiso  ? O
   O38        1.0     0.019967     0.873329     0.178586    Uiso  ? O
   O39        1.0     0.519967     0.373329     0.178586    Uiso  ? O
   O40        1.0     0.519967     0.873329     0.178586    Uiso  ? O
   O41        1.0     0.011642     0.498377     0.017867    Uiso  ? O
   O42        1.0     0.011642     0.998377     0.017867    Uiso  ? O
   O43        1.0     0.511642     0.498377     0.017867    Uiso  ? O
   O44        1.0     0.511642     0.998377     0.017867    Uiso  ? O
   O45        1.0     0.011911     0.248095     0.338476    Uiso  ? O
   O46        1.0     0.011911     0.748095     0.338476    Uiso  ? O
   O47        1.0     0.511911     0.248095     0.338476    Uiso  ? O
   O48        1.0     0.511911     0.748095     0.338476    Uiso  ? O
   O49        1.0     0.376812     0.140118     0.353406    Uiso  ? O
   O50        1.0     0.376812     0.640118     0.353406    Uiso  ? O
   O51        1.0     0.876812     0.140118     0.353406    Uiso  ? O
   O52        1.0     0.876812     0.640118     0.353406    Uiso  ? O
   O53        1.0     0.376812     0.384067     0.026557    Uiso  ? O
   O54        1.0     0.376812     0.884067     0.026557    Uiso  ? O
   O55        1.0     0.876812     0.384067     0.026557    Uiso  ? O
   O56        1.0     0.876812     0.884067     0.026557    Uiso  ? O
   O57        1.0     0.376827     0.361993     0.330262    Uiso  ? O
   O58        1.0     0.376827     0.861993     0.330262    Uiso  ? O
   O59        1.0     0.876827     0.361993     0.330262    Uiso  ? O
   O60        1.0     0.876827     0.861993     0.330262    Uiso  ? O
   O61        1.0     0.376826     0.106446     0.003414    Uiso  ? O
   O62        1.0     0.376826     0.606446     0.003414    Uiso  ? O
   O63        1.0     0.876826     0.106446     0.003414    Uiso  ? O
   O64        1.0     0.876826     0.606446     0.003414    Uiso  ? O
   O65        1.0     0.126812     0.134067     0.026557    Uiso  ? O
   O66        1.0     0.126812     0.634067     0.026557    Uiso  ? O
   O67        1.0     0.626812     0.134067     0.026557    Uiso  ? O
   O68        1.0     0.626812     0.634067     0.026557    Uiso  ? O
   O69        1.0     0.126812     0.390118     0.353406    Uiso  ? O
   O70        1.0     0.126812     0.890118     0.353406    Uiso  ? O
   O71        1.0     0.626812     0.390118     0.353406    Uiso  ? O
   O72        1.0     0.626812     0.890118     0.353406    Uiso  ? O
   O73        1.0     0.126827     0.111993     0.330262    Uiso  ? O
   O74        1.0     0.126827     0.611993     0.330262    Uiso  ? O
   O75        1.0     0.626827     0.111993     0.330262    Uiso  ? O
   O76        1.0     0.626827     0.611993     0.330262    Uiso  ? O
   O77        1.0     0.126826     0.356446     0.003414    Uiso  ? O
   O78        1.0     0.126826     0.856446     0.003414    Uiso  ? O
   O79        1.0     0.626826     0.356446     0.003414    Uiso  ? O
   O80        1.0     0.626826     0.856446     0.003414    Uiso  ? O
   Pt1        1.0     0.991571     0.994360     0.520794    Uiso  ? Pt
   Pt2        1.0     0.010713     0.243877     0.520773    Uiso  ? Pt
   Pt3        1.0     0.991571     0.494360     0.520794    Uiso  ? Pt
   Pt4        1.0     0.010713     0.743877     0.520773    Uiso  ? Pt
   Pt5        1.0     0.260713     0.993877     0.520773    Uiso  ? Pt
   Pt6        1.0     0.241571     0.244360     0.520794    Uiso  ? Pt
   Pt7        1.0     0.260713     0.493877     0.520773    Uiso  ? Pt
   Pt8        1.0     0.241571     0.744360     0.520794    Uiso  ? Pt
   Pt9        1.0     0.491571     0.994360     0.520794    Uiso  ? Pt
   Pt10       1.0     0.510713     0.243877     0.520773    Uiso  ? Pt
   Pt11       1.0     0.491571     0.494360     0.520794    Uiso  ? Pt
   Pt12       1.0     0.510713     0.743877     0.520773    Uiso  ? Pt
   Pt13       1.0     0.760713     0.993877     0.520773    Uiso  ? Pt
   Pt14       1.0     0.741571     0.244360     0.520794    Uiso  ? Pt
   Pt15       1.0     0.760713     0.493877     0.520773    Uiso  ? Pt
   Pt16       1.0     0.741571     0.744360     0.520794    Uiso  ? Pt
   Pt17       1.0     0.011875     0.002068     0.835978    Uiso  ? Pt
   Pt18       1.0     0.992878     0.252537     0.835961    Uiso  ? Pt
   Pt19       1.0     0.011875     0.502068     0.835978    Uiso  ? Pt
   Pt20       1.0     0.992878     0.752537     0.835961    Uiso  ? Pt
   Pt21       1.0     0.242878     0.002537     0.835961    Uiso  ? Pt
   Pt22       1.0     0.261874     0.252068     0.835978    Uiso  ? Pt
   Pt23       1.0     0.242878     0.502537     0.835961    Uiso  ? Pt
   Pt24       1.0     0.261875     0.752068     0.835978    Uiso  ? Pt
   Pt25       1.0     0.511874     0.002068     0.835978    Uiso  ? Pt
   Pt26       1.0     0.492878     0.252537     0.835961    Uiso  ? Pt
   Pt27       1.0     0.511874     0.502068     0.835978    Uiso  ? Pt
   Pt28       1.0     0.492878     0.752537     0.835961    Uiso  ? Pt
   Pt29       1.0     0.742878     0.002537     0.835961    Uiso  ? Pt
   Pt30       1.0     0.761874     0.252068     0.835978    Uiso  ? Pt
   Pt31       1.0     0.742878     0.502537     0.835961    Uiso  ? Pt
   Pt32       1.0     0.761874     0.752068     0.835978    Uiso  ? Pt
   Pt33       1.0     0.004765     0.123287     0.678812    Uiso  ? Pt
   Pt34       1.0     0.998792     0.373153     0.677962    Uiso  ? Pt
   Pt35       1.0     0.004765     0.623287     0.678812    Uiso  ? Pt
   Pt36       1.0     0.998792     0.873153     0.677962    Uiso  ? Pt
   Pt37       1.0     0.248792     0.123153     0.677962    Uiso  ? Pt
   Pt38       1.0     0.254765     0.373287     0.678812    Uiso  ? Pt
   Pt39       1.0     0.248792     0.623153     0.677962    Uiso  ? Pt
   Pt40       1.0     0.254765     0.873287     0.678812    Uiso  ? Pt
   Pt41       1.0     0.504765     0.123287     0.678812    Uiso  ? Pt
   Pt42       1.0     0.498792     0.373153     0.677962    Uiso  ? Pt
   Pt43       1.0     0.504765     0.623287     0.678812    Uiso  ? Pt
   Pt44       1.0     0.498792     0.873153     0.677962    Uiso  ? Pt
   Pt45       1.0     0.748792     0.123153     0.677962    Uiso  ? Pt
   Pt46       1.0     0.754765     0.373287     0.678812    Uiso  ? Pt
   Pt47       1.0     0.748792     0.623153     0.677962    Uiso  ? Pt
   Pt48       1.0     0.754765     0.873287     0.678812    Uiso  ? Pt
   Pt49       1.0     0.126598     0.995941     0.666704    Uiso  ? Pt
   Pt50       1.0     0.126922     0.250492     0.690076    Uiso  ? Pt
   Pt51       1.0     0.126598     0.495941     0.666704    Uiso  ? Pt
   Pt52       1.0     0.126922     0.750492     0.690076    Uiso  ? Pt
   Pt53       1.0     0.376922     0.000492     0.690076    Uiso  ? Pt
   Pt54       1.0     0.376598     0.245941     0.666704    Uiso  ? Pt
   Pt55       1.0     0.376922     0.500492     0.690076    Uiso  ? Pt
   Pt56       1.0     0.376598     0.745941     0.666704    Uiso  ? Pt
   Pt57       1.0     0.626598     0.995941     0.666704    Uiso  ? Pt
   Pt58       1.0     0.626922     0.250492     0.690076    Uiso  ? Pt
   Pt59       1.0     0.626598     0.495941     0.666704    Uiso  ? Pt
   Pt60       1.0     0.626922     0.750492     0.690076    Uiso  ? Pt
   Pt61       1.0     0.876922     0.000492     0.690076    Uiso  ? Pt
   Pt62       1.0     0.876598     0.245941     0.666704    Uiso  ? Pt
   Pt63       1.0     0.876922     0.500492     0.690076    Uiso  ? Pt
   Pt64       1.0     0.876598     0.745941     0.666704    Uiso  ? Pt
   Pt65       1.0     0.126090     0.121593     0.519861    Uiso  ? Pt
   Pt66       1.0     0.126576     0.362220     0.527490    Uiso  ? Pt
   Pt67       1.0     0.126090     0.621593     0.519861    Uiso  ? Pt
   Pt68       1.0     0.126576     0.862220     0.527490    Uiso  ? Pt
   Pt69       1.0     0.376576     0.112220     0.527490    Uiso  ? Pt
   Pt70       1.0     0.376090     0.371593     0.519861    Uiso  ? Pt
   Pt71       1.0     0.376576     0.612220     0.527490    Uiso  ? Pt
   Pt72       1.0     0.376090     0.871593     0.519861    Uiso  ? Pt
   Pt73       1.0     0.626090     0.121593     0.519861    Uiso  ? Pt
   Pt74       1.0     0.626576     0.362220     0.527490    Uiso  ? Pt
   Pt75       1.0     0.626090     0.621593     0.519861    Uiso  ? Pt
   Pt76       1.0     0.626576     0.862220     0.527490    Uiso  ? Pt
   Pt77       1.0     0.876576     0.112220     0.527490    Uiso  ? Pt
   Pt78       1.0     0.876090     0.371593     0.519861    Uiso  ? Pt
   Pt79       1.0     0.876576     0.612220     0.527490    Uiso  ? Pt
   Pt80       1.0     0.876090     0.871593     0.519861    Uiso  ? Pt
   Pt81       1.0     0.127483     0.124742     0.836886    Uiso  ? Pt
   Pt82       1.0     0.126963     0.384258     0.829307    Uiso  ? Pt
   Pt83       1.0     0.127483     0.624742     0.836886    Uiso  ? Pt
   Pt84       1.0     0.126963     0.884258     0.829307    Uiso  ? Pt
   Pt85       1.0     0.376963     0.134258     0.829307    Uiso  ? Pt
   Pt86       1.0     0.377483     0.374742     0.836886    Uiso  ? Pt
   Pt87       1.0     0.376963     0.634258     0.829307    Uiso  ? Pt
   Pt88       1.0     0.377483     0.874742     0.836886    Uiso  ? Pt
   Pt89       1.0     0.627483     0.124742     0.836886    Uiso  ? Pt
   Pt90       1.0     0.626963     0.384258     0.829307    Uiso  ? Pt
   Pt91       1.0     0.627483     0.624742     0.836886    Uiso  ? Pt
   Pt92       1.0     0.626963     0.884258     0.829307    Uiso  ? Pt
   Pt93       1.0     0.876963     0.134258     0.829307    Uiso  ? Pt
   Pt94       1.0     0.877483     0.374742     0.836886    Uiso  ? Pt
   Pt95       1.0     0.876963     0.634258     0.829307    Uiso  ? Pt
   Pt96       1.0     0.877483     0.874742     0.836886    Uiso  ? Pt
