
#======================================================================
# CRYSTAL DATA
#----------------------------------------------------------------------
data_VESTA_phase_1

_chemical_name_common                  'isocif-output                         '
_cell_length_a                         16.445499
_cell_length_b                         16.445499
_cell_length_c                         20.020525
_cell_angle_alpha                      90.000000
_cell_angle_beta                       90.000000
_cell_angle_gamma                      90.000000
_cell_volume                           5414.640095
_space_group_name_H-M_alt              'P 1'
_space_group_IT_number                 1

loop_
_space_group_symop_operation_xyz
   'x, y, z'

loop_
   _atom_site_label
   _atom_site_occupancy
   _atom_site_fract_x
   _atom_site_fract_y
   _atom_site_fract_z
   _atom_site_adp_type
   _atom_site_U_iso_or_equiv
   _atom_site_type_symbol
   Pb1        1.0     0.125000     -0.000000     0.099736    Uiso  ? Pb
   Pb2        1.0     0.125000     0.250000     0.099736    Uiso  ? Pb
   Pb3        1.0     0.125000     0.500000     0.099736    Uiso  ? Pb
   Pb4        1.0     0.125000     0.750000     0.099736    Uiso  ? Pb
   Pb5        1.0     0.375000     0.000000     0.099736    Uiso  ? Pb
   Pb6        1.0     0.375000     0.250000     0.099736    Uiso  ? Pb
   Pb7        1.0     0.375000     0.500000     0.099736    Uiso  ? Pb
   Pb8        1.0     0.375000     0.750000     0.099736    Uiso  ? Pb
   Pb9        1.0     0.625000     -0.000000     0.099736    Uiso  ? Pb
   Pb10       1.0     0.625000     0.250000     0.099736    Uiso  ? Pb
   Pb11       1.0     0.625000     0.500000     0.099736    Uiso  ? Pb
   Pb12       1.0     0.625000     0.750000     0.099736    Uiso  ? Pb
   Pb13       1.0     0.875000     -0.000000     0.099736    Uiso  ? Pb
   Pb14       1.0     0.875000     0.250000     0.099736    Uiso  ? Pb
   Pb15       1.0     0.875000     0.500000     0.099736    Uiso  ? Pb
   Pb16       1.0     0.875000     0.750000     0.099736    Uiso  ? Pb
   Pb17       1.0     0.125000     -0.000000     0.304137    Uiso  ? Pb
   Pb18       1.0     0.125000     0.250000     0.304137    Uiso  ? Pb
   Pb19       1.0     0.125000     0.500000     0.304137    Uiso  ? Pb
   Pb20       1.0     0.125000     0.750000     0.304137    Uiso  ? Pb
   Pb21       1.0     0.375000     -0.000000     0.304137    Uiso  ? Pb
   Pb22       1.0     0.375000     0.250000     0.304137    Uiso  ? Pb
   Pb23       1.0     0.375000     0.500000     0.304137    Uiso  ? Pb
   Pb24       1.0     0.375000     0.750000     0.304137    Uiso  ? Pb
   Pb25       1.0     0.625000     0.000000     0.304137    Uiso  ? Pb
   Pb26       1.0     0.625000     0.250000     0.304137    Uiso  ? Pb
   Pb27       1.0     0.625000     0.500000     0.304137    Uiso  ? Pb
   Pb28       1.0     0.625000     0.750000     0.304137    Uiso  ? Pb
   Pb29       1.0     0.875000     -0.000000     0.304137    Uiso  ? Pb
   Pb30       1.0     0.875000     0.250000     0.304137    Uiso  ? Pb
   Pb31       1.0     0.875000     0.500000     0.304137    Uiso  ? Pb
   Pb32       1.0     0.875000     0.750000     0.304137    Uiso  ? Pb
   Pb33       1.0     0.125000     0.000000     0.508537    Uiso  ? Pb
   Pb34       1.0     0.125000     0.250000     0.508537    Uiso  ? Pb
   Pb35       1.0     0.125000     0.500000     0.508537    Uiso  ? Pb
   Pb36       1.0     0.125000     0.750000     0.508537    Uiso  ? Pb
   Pb37       1.0     0.375000     -0.000000     0.508537    Uiso  ? Pb
   Pb38       1.0     0.375000     0.250000     0.508537    Uiso  ? Pb
   Pb39       1.0     0.375000     0.500000     0.508537    Uiso  ? Pb
   Pb40       1.0     0.375000     0.750000     0.508537    Uiso  ? Pb
   Pb41       1.0     0.625000     -0.000000     0.508537    Uiso  ? Pb
   Pb42       1.0     0.625000     0.250000     0.508537    Uiso  ? Pb
   Pb43       1.0     0.625000     0.500000     0.508537    Uiso  ? Pb
   Pb44       1.0     0.625000     0.750000     0.508537    Uiso  ? Pb
   Pb45       1.0     0.875000     -0.000000     0.508537    Uiso  ? Pb
   Pb46       1.0     0.875000     0.250000     0.508537    Uiso  ? Pb
   Pb47       1.0     0.875000     0.500000     0.508537    Uiso  ? Pb
   Pb48       1.0     0.875000     0.750000     0.508537    Uiso  ? Pb
   Zr1        1.0     0.000000     0.125000    -0.002724    Uiso  ? Zr
   Zr2        1.0     0.000000     0.375000    -0.002724    Uiso  ? Zr
   Zr3        1.0     -0.000000     0.625000    -0.002724    Uiso  ? Zr
   Zr4        1.0     -0.000000     0.875000    -0.002724    Uiso  ? Zr
   Zr5        1.0     0.250000     0.125000    -0.002724    Uiso  ? Zr
   Zr6        1.0     0.250000     0.375000    -0.002724    Uiso  ? Zr
   Zr7        1.0     0.250000     0.625000    -0.002724    Uiso  ? Zr
   Zr8        1.0     0.250000     0.875000    -0.002724    Uiso  ? Zr
   Zr9        1.0     0.500000     0.125000    -0.002724    Uiso  ? Zr
   Zr10       1.0     0.500000     0.375000    -0.002724    Uiso  ? Zr
   Zr11       1.0     0.500000     0.625000    -0.002724    Uiso  ? Zr
   Zr12       1.0     0.500000     0.875000    -0.002724    Uiso  ? Zr
   Zr13       1.0     0.750000     0.125000    -0.002724    Uiso  ? Zr
   Zr14       1.0     0.750000     0.375000    -0.002724    Uiso  ? Zr
   Zr15       1.0     0.750000     0.625000    -0.002724    Uiso  ? Zr
   Zr16       1.0     0.750000     0.875000    -0.002724    Uiso  ? Zr
   Zr17       1.0     -0.000000     0.125000     0.201646    Uiso  ? Zr
   Zr18       1.0     -0.000000     0.375000     0.201646    Uiso  ? Zr
   Zr19       1.0     0.000000     0.625000     0.201646    Uiso  ? Zr
   Zr20       1.0     -0.000000     0.875000     0.201646    Uiso  ? Zr
   Zr21       1.0     0.250000     0.125000     0.201646    Uiso  ? Zr
   Zr22       1.0     0.250000     0.375000     0.201646    Uiso  ? Zr
   Zr23       1.0     0.250000     0.625000     0.201646    Uiso  ? Zr
   Zr24       1.0     0.250000     0.875000     0.201646    Uiso  ? Zr
   Zr25       1.0     0.500000     0.125000     0.201646    Uiso  ? Zr
   Zr26       1.0     0.500000     0.375000     0.201646    Uiso  ? Zr
   Zr27       1.0     0.500000     0.625000     0.201646    Uiso  ? Zr
   Zr28       1.0     0.500000     0.875000     0.201646    Uiso  ? Zr
   Zr29       1.0     0.750000     0.125000     0.201646    Uiso  ? Zr
   Zr30       1.0     0.750000     0.375000     0.201646    Uiso  ? Zr
   Zr31       1.0     0.750000     0.625000     0.201646    Uiso  ? Zr
   Zr32       1.0     0.750000     0.875000     0.201646    Uiso  ? Zr
   Zr33       1.0     0.000000     0.125000     0.406627    Uiso  ? Zr
   Zr34       1.0     -0.000000     0.375000     0.406627    Uiso  ? Zr
   Zr35       1.0     -0.000000     0.625000     0.406627    Uiso  ? Zr
   Zr36       1.0     0.000000     0.875000     0.406627    Uiso  ? Zr
   Zr37       1.0     0.250000     0.125000     0.406627    Uiso  ? Zr
   Zr38       1.0     0.250000     0.375000     0.406627    Uiso  ? Zr
   Zr39       1.0     0.250000     0.625000     0.406627    Uiso  ? Zr
   Zr40       1.0     0.250000     0.875000     0.406627    Uiso  ? Zr
   Zr41       1.0     0.500000     0.125000     0.406627    Uiso  ? Zr
   Zr42       1.0     0.500000     0.375000     0.406627    Uiso  ? Zr
   Zr43       1.0     0.500000     0.625000     0.406627    Uiso  ? Zr
   Zr44       1.0     0.500000     0.875000     0.406627    Uiso  ? Zr
   Zr45       1.0     0.750000     0.125000     0.406627    Uiso  ? Zr
   Zr46       1.0     0.750000     0.375000     0.406627    Uiso  ? Zr
   Zr47       1.0     0.750000     0.625000     0.406627    Uiso  ? Zr
   Zr48       1.0     0.750000     0.875000     0.406627    Uiso  ? Zr
   Zr49       1.0     0.000000     0.125000     0.610998    Uiso  ? Zr
   Zr50       1.0     -0.000000     0.375000     0.610998    Uiso  ? Zr
   Zr51       1.0     0.000000     0.625000     0.610998    Uiso  ? Zr
   Zr52       1.0     0.000000     0.875000     0.610998    Uiso  ? Zr
   Zr53       1.0     0.250000     0.125000     0.610998    Uiso  ? Zr
   Zr54       1.0     0.250000     0.375000     0.610998    Uiso  ? Zr
   Zr55       1.0     0.250000     0.625000     0.610998    Uiso  ? Zr
   Zr56       1.0     0.250000     0.875000     0.610998    Uiso  ? Zr
   Zr57       1.0     0.500000     0.125000     0.610998    Uiso  ? Zr
   Zr58       1.0     0.500000     0.375000     0.610998    Uiso  ? Zr
   Zr59       1.0     0.500000     0.625000     0.610998    Uiso  ? Zr
   Zr60       1.0     0.500000     0.875000     0.610998    Uiso  ? Zr
   Zr61       1.0     0.750000     0.125000     0.610998    Uiso  ? Zr
   Zr62       1.0     0.750000     0.375000     0.610998    Uiso  ? Zr
   Zr63       1.0     0.750000     0.625000     0.610998    Uiso  ? Zr
   Zr64       1.0     0.750000     0.875000     0.610998    Uiso  ? Zr
   O1         1.0     0.125000     0.125000     0.004976    Uiso  ? O
   O2         1.0     0.125000     0.375000     0.004976    Uiso  ? O
   O3         1.0     0.125000     0.625000     0.004976    Uiso  ? O
   O4         1.0     0.125000     0.875000     0.004976    Uiso  ? O
   O5         1.0     0.375000     0.125000     0.004976    Uiso  ? O
   O6         1.0     0.375000     0.375000     0.004976    Uiso  ? O
   O7         1.0     0.375000     0.625000     0.004976    Uiso  ? O
   O8         1.0     0.375000     0.875000     0.004976    Uiso  ? O
   O9         1.0     0.625000     0.125000     0.004976    Uiso  ? O
   O10        1.0     0.625000     0.375000     0.004976    Uiso  ? O
   O11        1.0     0.625000     0.625000     0.004976    Uiso  ? O
   O12        1.0     0.625000     0.875000     0.004976    Uiso  ? O
   O13        1.0     0.875000     0.125000     0.004976    Uiso  ? O
   O14        1.0     0.875000     0.375000     0.004976    Uiso  ? O
   O15        1.0     0.875000     0.625000     0.004976    Uiso  ? O
   O16        1.0     0.875000     0.875000     0.004976    Uiso  ? O
   O17        1.0     0.125000     0.125000     0.201952    Uiso  ? O
   O18        1.0     0.125000     0.375000     0.201952    Uiso  ? O
   O19        1.0     0.125000     0.625000     0.201952    Uiso  ? O
   O20        1.0     0.125000     0.875000     0.201952    Uiso  ? O
   O21        1.0     0.375000     0.125000     0.201952    Uiso  ? O
   O22        1.0     0.375000     0.375000     0.201952    Uiso  ? O
   O23        1.0     0.375000     0.625000     0.201952    Uiso  ? O
   O24        1.0     0.375000     0.875000     0.201952    Uiso  ? O
   O25        1.0     0.625000     0.125000     0.201952    Uiso  ? O
   O26        1.0     0.625000     0.375000     0.201952    Uiso  ? O
   O27        1.0     0.625000     0.625000     0.201952    Uiso  ? O
   O28        1.0     0.625000     0.875000     0.201952    Uiso  ? O
   O29        1.0     0.875000     0.125000     0.201952    Uiso  ? O
   O30        1.0     0.875000     0.375000     0.201952    Uiso  ? O
   O31        1.0     0.875000     0.625000     0.201952    Uiso  ? O
   O32        1.0     0.875000     0.875000     0.201952    Uiso  ? O
   O33        1.0     0.125000     0.125000     0.406321    Uiso  ? O
   O34        1.0     0.125000     0.375000     0.406321    Uiso  ? O
   O35        1.0     0.125000     0.625000     0.406321    Uiso  ? O
   O36        1.0     0.125000     0.875000     0.406321    Uiso  ? O
   O37        1.0     0.375000     0.125000     0.406321    Uiso  ? O
   O38        1.0     0.375000     0.375000     0.406321    Uiso  ? O
   O39        1.0     0.375000     0.625000     0.406321    Uiso  ? O
   O40        1.0     0.375000     0.875000     0.406321    Uiso  ? O
   O41        1.0     0.625000     0.125000     0.406321    Uiso  ? O
   O42        1.0     0.625000     0.375000     0.406321    Uiso  ? O
   O43        1.0     0.625000     0.625000     0.406321    Uiso  ? O
   O44        1.0     0.625000     0.875000     0.406321    Uiso  ? O
   O45        1.0     0.875000     0.125000     0.406321    Uiso  ? O
   O46        1.0     0.875000     0.375000     0.406321    Uiso  ? O
   O47        1.0     0.875000     0.625000     0.406321    Uiso  ? O
   O48        1.0     0.875000     0.875000     0.406321    Uiso  ? O
   O49        1.0     0.125000     0.125000     0.603297    Uiso  ? O
   O50        1.0     0.125000     0.375000     0.603297    Uiso  ? O
   O51        1.0     0.125000     0.625000     0.603297    Uiso  ? O
   O52        1.0     0.125000     0.875000     0.603297    Uiso  ? O
   O53        1.0     0.375000     0.125000     0.603297    Uiso  ? O
   O54        1.0     0.375000     0.375000     0.603297    Uiso  ? O
   O55        1.0     0.375000     0.625000     0.603297    Uiso  ? O
   O56        1.0     0.375000     0.875000     0.603297    Uiso  ? O
   O57        1.0     0.625000     0.125000     0.603297    Uiso  ? O
   O58        1.0     0.625000     0.375000     0.603297    Uiso  ? O
   O59        1.0     0.625000     0.625000     0.603297    Uiso  ? O
   O60        1.0     0.625000     0.875000     0.603297    Uiso  ? O
   O61        1.0     0.875000     0.125000     0.603297    Uiso  ? O
   O62        1.0     0.875000     0.375000     0.603297    Uiso  ? O
   O63        1.0     0.875000     0.625000     0.603297    Uiso  ? O
   O64        1.0     0.875000     0.875000     0.603297    Uiso  ? O
   O65        1.0     -0.000000     0.000000     0.004976    Uiso  ? O
   O66        1.0     -0.000000     0.250000     0.004976    Uiso  ? O
   O67        1.0     -0.000000     0.500000     0.004976    Uiso  ? O
   O68        1.0     -0.000000     0.750000     0.004976    Uiso  ? O
   O69        1.0     0.250000     -0.000000     0.004976    Uiso  ? O
   O70        1.0     0.250000     0.250000     0.004976    Uiso  ? O
   O71        1.0     0.250000     0.500000     0.004976    Uiso  ? O
   O72        1.0     0.250000     0.750000     0.004976    Uiso  ? O
   O73        1.0     0.500000     -0.000000     0.004976    Uiso  ? O
   O74        1.0     0.500000     0.250000     0.004976    Uiso  ? O
   O75        1.0     0.500000     0.500000     0.004976    Uiso  ? O
   O76        1.0     0.500000     0.750000     0.004976    Uiso  ? O
   O77        1.0     0.750000     0.000000     0.004976    Uiso  ? O
   O78        1.0     0.750000     0.250000     0.004976    Uiso  ? O
   O79        1.0     0.750000     0.500000     0.004976    Uiso  ? O
   O80        1.0     0.750000     0.750000     0.004976    Uiso  ? O
   O81        1.0     -0.000000     -0.000000     0.201952    Uiso  ? O
   O82        1.0     -0.000000     0.250000     0.201952    Uiso  ? O
   O83        1.0     0.000000     0.500000     0.201952    Uiso  ? O
   O84        1.0     0.000000     0.750000     0.201952    Uiso  ? O
   O85        1.0     0.250000     -0.000000     0.201952    Uiso  ? O
   O86        1.0     0.250000     0.250000     0.201952    Uiso  ? O
   O87        1.0     0.250000     0.500000     0.201952    Uiso  ? O
   O88        1.0     0.250000     0.750000     0.201952    Uiso  ? O
   O89        1.0     0.500000     -0.000000     0.201952    Uiso  ? O
   O90        1.0     0.500000     0.250000     0.201952    Uiso  ? O
   O91        1.0     0.500000     0.500000     0.201952    Uiso  ? O
   O92        1.0     0.500000     0.750000     0.201952    Uiso  ? O
   O93        1.0     0.750000     -0.000000     0.201952    Uiso  ? O
   O94        1.0     0.750000     0.250000     0.201952    Uiso  ? O
   O95        1.0     0.750000     0.500000     0.201952    Uiso  ? O
   O96        1.0     0.750000     0.750000     0.201952    Uiso  ? O
   O97        1.0     -0.000000     -0.000000     0.406321    Uiso  ? O
   O98        1.0     -0.000000     0.250000     0.406321    Uiso  ? O
   O99        1.0     0.000000     0.500000     0.406321    Uiso  ? O
   O100       1.0     -0.000000     0.750000     0.406321    Uiso  ? O
   O101       1.0     0.250000     -0.000000     0.406321    Uiso  ? O
   O102       1.0     0.250000     0.250000     0.406321    Uiso  ? O
   O103       1.0     0.250000     0.500000     0.406321    Uiso  ? O
   O104       1.0     0.250000     0.750000     0.406321    Uiso  ? O
   O105       1.0     0.500000     -0.000000     0.406321    Uiso  ? O
   O106       1.0     0.500000     0.250000     0.406321    Uiso  ? O
   O107       1.0     0.500000     0.500000     0.406321    Uiso  ? O
   O108       1.0     0.500000     0.750000     0.406321    Uiso  ? O
   O109       1.0     0.750000     -0.000000     0.406321    Uiso  ? O
   O110       1.0     0.750000     0.250000     0.406321    Uiso  ? O
   O111       1.0     0.750000     0.500000     0.406321    Uiso  ? O
   O112       1.0     0.750000     0.750000     0.406321    Uiso  ? O
   O113       1.0     0.000000     0.000000     0.603297    Uiso  ? O
   O114       1.0     0.000000     0.250000     0.603297    Uiso  ? O
   O115       1.0     0.000000     0.500000     0.603297    Uiso  ? O
   O116       1.0     0.000000     0.750000     0.603297    Uiso  ? O
   O117       1.0     0.250000     0.000000     0.603297    Uiso  ? O
   O118       1.0     0.250000     0.250000     0.603297    Uiso  ? O
   O119       1.0     0.250000     0.500000     0.603297    Uiso  ? O
   O120       1.0     0.250000     0.750000     0.603297    Uiso  ? O
   O121       1.0     0.500000     -0.000000     0.603297    Uiso  ? O
   O122       1.0     0.500000     0.250000     0.603297    Uiso  ? O
   O123       1.0     0.500000     0.500000     0.603297    Uiso  ? O
   O124       1.0     0.500000     0.750000     0.603297    Uiso  ? O
   O125       1.0     0.750000     -0.000000     0.603297    Uiso  ? O
   O126       1.0     0.750000     0.250000     0.603297    Uiso  ? O
   O127       1.0     0.750000     0.500000     0.603297    Uiso  ? O
   O128       1.0     0.750000     0.750000     0.603297    Uiso  ? O
   O129       1.0     0.000000     0.125000     0.098805    Uiso  ? O
   O130       1.0     -0.000000     0.375000     0.098805    Uiso  ? O
   O131       1.0     -0.000000     0.625000     0.098805    Uiso  ? O
   O132       1.0     -0.000000     0.875000     0.098805    Uiso  ? O
   O133       1.0     0.250000     0.125000     0.098805    Uiso  ? O
   O134       1.0     0.250000     0.375000     0.098805    Uiso  ? O
   O135       1.0     0.250000     0.625000     0.098805    Uiso  ? O
   O136       1.0     0.250000     0.875000     0.098805    Uiso  ? O
   O137       1.0     0.500000     0.125000     0.098805    Uiso  ? O
   O138       1.0     0.500000     0.375000     0.098805    Uiso  ? O
   O139       1.0     0.500000     0.625000     0.098805    Uiso  ? O
   O140       1.0     0.500000     0.875000     0.098805    Uiso  ? O
   O141       1.0     0.750000     0.125000     0.098805    Uiso  ? O
   O142       1.0     0.750000     0.375000     0.098805    Uiso  ? O
   O143       1.0     0.750000     0.625000     0.098805    Uiso  ? O
   O144       1.0     0.750000     0.875000     0.098805    Uiso  ? O
   O145       1.0     0.000000     0.125000     0.304137    Uiso  ? O
   O146       1.0     -0.000000     0.375000     0.304137    Uiso  ? O
   O147       1.0     -0.000000     0.625000     0.304137    Uiso  ? O
   O148       1.0     -0.000000     0.875000     0.304137    Uiso  ? O
   O149       1.0     0.250000     0.125000     0.304137    Uiso  ? O
   O150       1.0     0.250000     0.375000     0.304137    Uiso  ? O
   O151       1.0     0.250000     0.625000     0.304137    Uiso  ? O
   O152       1.0     0.250000     0.875000     0.304137    Uiso  ? O
   O153       1.0     0.500000     0.125000     0.304137    Uiso  ? O
   O154       1.0     0.500000     0.375000     0.304137    Uiso  ? O
   O155       1.0     0.500000     0.625000     0.304137    Uiso  ? O
   O156       1.0     0.500000     0.875000     0.304137    Uiso  ? O
   O157       1.0     0.750000     0.125000     0.304137    Uiso  ? O
   O158       1.0     0.750000     0.375000     0.304137    Uiso  ? O
   O159       1.0     0.750000     0.625000     0.304137    Uiso  ? O
   O160       1.0     0.750000     0.875000     0.304137    Uiso  ? O
   O161       1.0     -0.000000     0.125000     0.509469    Uiso  ? O
   O162       1.0     0.000000     0.375000     0.509469    Uiso  ? O
   O163       1.0     -0.000000     0.625000     0.509469    Uiso  ? O
   O164       1.0     -0.000000     0.875000     0.509469    Uiso  ? O
   O165       1.0     0.250000     0.125000     0.509469    Uiso  ? O
   O166       1.0     0.250000     0.375000     0.509469    Uiso  ? O
   O167       1.0     0.250000     0.625000     0.509469    Uiso  ? O
   O168       1.0     0.250000     0.875000     0.509469    Uiso  ? O
   O169       1.0     0.500000     0.125000     0.509469    Uiso  ? O
   O170       1.0     0.500000     0.375000     0.509469    Uiso  ? O
   O171       1.0     0.500000     0.625000     0.509469    Uiso  ? O
   O172       1.0     0.500000     0.875000     0.509469    Uiso  ? O
   O173       1.0     0.750000     0.125000     0.509469    Uiso  ? O
   O174       1.0     0.750000     0.375000     0.509469    Uiso  ? O
   O175       1.0     0.750000     0.625000     0.509469    Uiso  ? O
   O176       1.0     0.750000     0.875000     0.509469    Uiso  ? O
   Pt1        1.0     -0.000000     0.000000     0.710816    Uiso  ? Pt
   Pt2        1.0     0.000000     0.250000     0.710816    Uiso  ? Pt
   Pt3        1.0     0.000000     0.500000     0.710816    Uiso  ? Pt
   Pt4        1.0     0.000000     0.750000     0.710816    Uiso  ? Pt
   Pt5        1.0     0.250000     0.000000     0.710816    Uiso  ? Pt
   Pt6        1.0     0.250000     0.250000     0.710816    Uiso  ? Pt
   Pt7        1.0     0.250000     0.500000     0.710816    Uiso  ? Pt
   Pt8        1.0     0.250000     0.750000     0.710816    Uiso  ? Pt
   Pt9        1.0     0.500000     -0.000000     0.710816    Uiso  ? Pt
   Pt10       1.0     0.500000     0.250000     0.710816    Uiso  ? Pt
   Pt11       1.0     0.500000     0.500000     0.710816    Uiso  ? Pt
   Pt12       1.0     0.500000     0.750000     0.710816    Uiso  ? Pt
   Pt13       1.0     0.750000     -0.000000     0.710816    Uiso  ? Pt
   Pt14       1.0     0.750000     0.250000     0.710816    Uiso  ? Pt
   Pt15       1.0     0.750000     0.500000     0.710816    Uiso  ? Pt
   Pt16       1.0     0.750000     0.750000     0.710816    Uiso  ? Pt
   Pt17       1.0     -0.000000     0.000000     0.897457    Uiso  ? Pt
   Pt18       1.0     0.000000     0.250000     0.897457    Uiso  ? Pt
   Pt19       1.0     -0.000000     0.500000     0.897457    Uiso  ? Pt
   Pt20       1.0     -0.000000     0.750000     0.897457    Uiso  ? Pt
   Pt21       1.0     0.250000     0.000000     0.897457    Uiso  ? Pt
   Pt22       1.0     0.250000     0.250000     0.897457    Uiso  ? Pt
   Pt23       1.0     0.250000     0.500000     0.897457    Uiso  ? Pt
   Pt24       1.0     0.250000     0.750000     0.897457    Uiso  ? Pt
   Pt25       1.0     0.500000     -0.000000     0.897457    Uiso  ? Pt
   Pt26       1.0     0.500000     0.250000     0.897457    Uiso  ? Pt
   Pt27       1.0     0.500000     0.500000     0.897457    Uiso  ? Pt
   Pt28       1.0     0.500000     0.750000     0.897457    Uiso  ? Pt
   Pt29       1.0     0.750000     0.000000     0.897457    Uiso  ? Pt
   Pt30       1.0     0.750000     0.250000     0.897457    Uiso  ? Pt
   Pt31       1.0     0.750000     0.500000     0.897457    Uiso  ? Pt
   Pt32       1.0     0.750000     0.750000     0.897457    Uiso  ? Pt
   Pt33       1.0     0.000000     0.125000     0.804137    Uiso  ? Pt
   Pt34       1.0     0.000000     0.375000     0.804137    Uiso  ? Pt
   Pt35       1.0     -0.000000     0.625000     0.804137    Uiso  ? Pt
   Pt36       1.0     0.000000     0.875000     0.804137    Uiso  ? Pt
   Pt37       1.0     0.250000     0.125000     0.804137    Uiso  ? Pt
   Pt38       1.0     0.250000     0.375000     0.804137    Uiso  ? Pt
   Pt39       1.0     0.250000     0.625000     0.804137    Uiso  ? Pt
   Pt40       1.0     0.250000     0.875000     0.804137    Uiso  ? Pt
   Pt41       1.0     0.500000     0.125000     0.804137    Uiso  ? Pt
   Pt42       1.0     0.500000     0.375000     0.804137    Uiso  ? Pt
   Pt43       1.0     0.500000     0.625000     0.804137    Uiso  ? Pt
   Pt44       1.0     0.500000     0.875000     0.804137    Uiso  ? Pt
   Pt45       1.0     0.750000     0.125000     0.804137    Uiso  ? Pt
   Pt46       1.0     0.750000     0.375000     0.804137    Uiso  ? Pt
   Pt47       1.0     0.750000     0.625000     0.804137    Uiso  ? Pt
   Pt48       1.0     0.750000     0.875000     0.804137    Uiso  ? Pt
   Pt49       1.0     0.125000     -0.000000     0.804137    Uiso  ? Pt
   Pt50       1.0     0.125000     0.250000     0.804137    Uiso  ? Pt
   Pt51       1.0     0.125000     0.500000     0.804137    Uiso  ? Pt
   Pt52       1.0     0.125000     0.750000     0.804137    Uiso  ? Pt
   Pt53       1.0     0.375000     0.000000     0.804137    Uiso  ? Pt
   Pt54       1.0     0.375000     0.250000     0.804137    Uiso  ? Pt
   Pt55       1.0     0.375000     0.500000     0.804137    Uiso  ? Pt
   Pt56       1.0     0.375000     0.750000     0.804137    Uiso  ? Pt
   Pt57       1.0     0.625000     -0.000000     0.804137    Uiso  ? Pt
   Pt58       1.0     0.625000     0.250000     0.804137    Uiso  ? Pt
   Pt59       1.0     0.625000     0.500000     0.804137    Uiso  ? Pt
   Pt60       1.0     0.625000     0.750000     0.804137    Uiso  ? Pt
   Pt61       1.0     0.875000     0.000000     0.804137    Uiso  ? Pt
   Pt62       1.0     0.875000     0.250000     0.804137    Uiso  ? Pt
   Pt63       1.0     0.875000     0.500000     0.804137    Uiso  ? Pt
   Pt64       1.0     0.875000     0.750000     0.804137    Uiso  ? Pt
   Pt65       1.0     0.125000     0.125000     0.710816    Uiso  ? Pt
   Pt66       1.0     0.125000     0.375000     0.710816    Uiso  ? Pt
   Pt67       1.0     0.125000     0.625000     0.710816    Uiso  ? Pt
   Pt68       1.0     0.125000     0.875000     0.710816    Uiso  ? Pt
   Pt69       1.0     0.375000     0.125000     0.710816    Uiso  ? Pt
   Pt70       1.0     0.375000     0.375000     0.710816    Uiso  ? Pt
   Pt71       1.0     0.375000     0.625000     0.710816    Uiso  ? Pt
   Pt72       1.0     0.375000     0.875000     0.710816    Uiso  ? Pt
   Pt73       1.0     0.625000     0.125000     0.710816    Uiso  ? Pt
   Pt74       1.0     0.625000     0.375000     0.710816    Uiso  ? Pt
   Pt75       1.0     0.625000     0.625000     0.710816    Uiso  ? Pt
   Pt76       1.0     0.625000     0.875000     0.710816    Uiso  ? Pt
   Pt77       1.0     0.875000     0.125000     0.710816    Uiso  ? Pt
   Pt78       1.0     0.875000     0.375000     0.710816    Uiso  ? Pt
   Pt79       1.0     0.875000     0.625000     0.710816    Uiso  ? Pt
   Pt80       1.0     0.875000     0.875000     0.710816    Uiso  ? Pt
   Pt81       1.0     0.125000     0.125000     0.897457    Uiso  ? Pt
   Pt82       1.0     0.125000     0.375000     0.897457    Uiso  ? Pt
   Pt83       1.0     0.125000     0.625000     0.897457    Uiso  ? Pt
   Pt84       1.0     0.125000     0.875000     0.897457    Uiso  ? Pt
   Pt85       1.0     0.375000     0.125000     0.897457    Uiso  ? Pt
   Pt86       1.0     0.375000     0.375000     0.897457    Uiso  ? Pt
   Pt87       1.0     0.375000     0.625000     0.897457    Uiso  ? Pt
   Pt88       1.0     0.375000     0.875000     0.897457    Uiso  ? Pt
   Pt89       1.0     0.625000     0.125000     0.897457    Uiso  ? Pt
   Pt90       1.0     0.625000     0.375000     0.897457    Uiso  ? Pt
   Pt91       1.0     0.625000     0.625000     0.897457    Uiso  ? Pt
   Pt92       1.0     0.625000     0.875000     0.897457    Uiso  ? Pt
   Pt93       1.0     0.875000     0.125000     0.897457    Uiso  ? Pt
   Pt94       1.0     0.875000     0.375000     0.897457    Uiso  ? Pt
   Pt95       1.0     0.875000     0.625000     0.897457    Uiso  ? Pt
   Pt96       1.0     0.875000     0.875000     0.897457    Uiso  ? Pt
