
#======================================================================
# CRYSTAL DATA
#----------------------------------------------------------------------
data_VESTA_phase_1

_chemical_name_common                  'isodistort-output10                   '
_cell_length_a                         5.800807
_cell_length_b                         35.035782
_cell_length_c                         20.067459
_cell_angle_alpha                      90.000000
_cell_angle_beta                       90.000000
_cell_angle_gamma                      90.000046
_cell_volume                           4078.425944
_space_group_name_H-M_alt              'P 1'
_space_group_IT_number                 1

loop_
_space_group_symop_operation_xyz
   'x, y, z'

loop_
   _atom_site_label
   _atom_site_occupancy
   _atom_site_fract_x
   _atom_site_fract_y
   _atom_site_fract_z
   _atom_site_adp_type
   _atom_site_U_iso_or_equiv
   _atom_site_type_symbol
   Pb1        1.0     0.214221     0.749080     0.112058    Uiso  ? Pb
   Pb2        1.0     0.214221     0.749080     0.508237    Uiso  ? Pb
   Pb3        1.0     0.785279     0.665278     0.107641    Uiso  ? Pb
   Pb4        1.0     0.785279     0.665278     0.512654    Uiso  ? Pb
   Pb5        1.0     0.279600     0.919129     0.106081    Uiso  ? Pb
   Pb6        1.0     0.279600     0.919129     0.514214    Uiso  ? Pb
   Pb7        1.0     0.779601     0.830872     0.106080    Uiso  ? Pb
   Pb8        1.0     0.779601     0.830872     0.514215    Uiso  ? Pb
   Pb9        1.0     0.285274     0.084722     0.107641    Uiso  ? Pb
   Pb10       1.0     0.285274     0.084722     0.512654    Uiso  ? Pb
   Pb11       1.0     0.778755     0.330614     0.106538    Uiso  ? Pb
   Pb12       1.0     0.778755     0.330614     0.513757    Uiso  ? Pb
   Pb13       1.0     0.214167     0.248373     0.110723    Uiso  ? Pb
   Pb14       1.0     0.214167     0.248373     0.509572    Uiso  ? Pb
   Pb15       1.0     0.714167     0.501628     0.110721    Uiso  ? Pb
   Pb16       1.0     0.714167     0.501628     0.509575    Uiso  ? Pb
   Pb17       1.0     0.278756     0.419386     0.106537    Uiso  ? Pb
   Pb18       1.0     0.278756     0.419386     0.513758    Uiso  ? Pb
   Pb19       1.0     0.714221     0.000921     0.112060    Uiso  ? Pb
   Pb20       1.0     0.714221     0.000921     0.508236    Uiso  ? Pb
   Pb21       1.0     0.287498     0.584618     0.107895    Uiso  ? Pb
   Pb22       1.0     0.287498     0.584618     0.512400    Uiso  ? Pb
   Pb23       1.0     0.787494     0.165383     0.107895    Uiso  ? Pb
   Pb24       1.0     0.787494     0.165383     0.512400    Uiso  ? Pb
   Pb25       1.0     0.217386     0.750454     0.310148    Uiso  ? Pb
   Pb26       1.0     0.793080     0.665699     0.310148    Uiso  ? Pb
   Pb27       1.0     0.301026     0.914475     0.310148    Uiso  ? Pb
   Pb28       1.0     0.801027     0.835526     0.310148    Uiso  ? Pb
   Pb29       1.0     0.293079     0.084302     0.310148    Uiso  ? Pb
   Pb30       1.0     0.801301     0.335471     0.310148    Uiso  ? Pb
   Pb31       1.0     0.217114     0.250285     0.310148    Uiso  ? Pb
   Pb32       1.0     0.717111     0.499716     0.310148    Uiso  ? Pb
   Pb33       1.0     0.301302     0.414531     0.310148    Uiso  ? Pb
   Pb34       1.0     0.717388     0.999547     0.310148    Uiso  ? Pb
   Pb35       1.0     0.294067     0.584219     0.310148    Uiso  ? Pb
   Pb36       1.0     0.794067     0.165781     0.310148    Uiso  ? Pb
   Zr1        1.0     0.765870     0.747852     0.615372    Uiso  ? Zr
   Zr2        1.0     0.748387     0.750458     0.209069    Uiso  ? Zr
   Zr3        1.0     0.239221     0.668174     0.003728    Uiso  ? Zr
   Zr4        1.0     0.258444     0.667024     0.412604    Uiso  ? Zr
   Zr5        1.0     0.258444     0.667024     0.207691    Uiso  ? Zr
   Zr6        1.0     0.239221     0.668174     0.616567    Uiso  ? Zr
   Zr7        1.0     0.765870     0.747852     0.004923    Uiso  ? Zr
   Zr8        1.0     0.748387     0.750458     0.411226    Uiso  ? Zr
   Zr9        1.0     0.760543     0.917408     0.006668    Uiso  ? Zr
   Zr10       1.0     0.764593     0.915933     0.412043    Uiso  ? Zr
   Zr11       1.0     0.260543     0.832593     0.613627    Uiso  ? Zr
   Zr12       1.0     0.264593     0.834068     0.208252    Uiso  ? Zr
   Zr13       1.0     0.260543     0.832593     0.006668    Uiso  ? Zr
   Zr14       1.0     0.264593     0.834068     0.412043    Uiso  ? Zr
   Zr15       1.0     0.760543     0.917408     0.613627    Uiso  ? Zr
   Zr16       1.0     0.764593     0.915933     0.208252    Uiso  ? Zr
   Zr17       1.0     0.739220     0.081826     0.616566    Uiso  ? Zr
   Zr18       1.0     0.758443     0.082977     0.207692    Uiso  ? Zr
   Zr19       1.0     0.258692     0.332555     0.007176    Uiso  ? Zr
   Zr20       1.0     0.264176     0.333960     0.411991    Uiso  ? Zr
   Zr21       1.0     0.258692     0.332555     0.613119    Uiso  ? Zr
   Zr22       1.0     0.264176     0.333960     0.208304    Uiso  ? Zr
   Zr23       1.0     0.739220     0.081826     0.003729    Uiso  ? Zr
   Zr24       1.0     0.758443     0.082977     0.412603    Uiso  ? Zr
   Zr25       1.0     0.763242     0.247562     0.004767    Uiso  ? Zr
   Zr26       1.0     0.748674     0.250417     0.411250    Uiso  ? Zr
   Zr27       1.0     0.263241     0.502438     0.615529    Uiso  ? Zr
   Zr28       1.0     0.248675     0.499584     0.209045    Uiso  ? Zr
   Zr29       1.0     0.263241     0.502438     0.004766    Uiso  ? Zr
   Zr30       1.0     0.248675     0.499584     0.411251    Uiso  ? Zr
   Zr31       1.0     0.763242     0.247562     0.615528    Uiso  ? Zr
   Zr32       1.0     0.748674     0.250417     0.209045    Uiso  ? Zr
   Zr33       1.0     0.758691     0.417444     0.613119    Uiso  ? Zr
   Zr34       1.0     0.764175     0.416041     0.208304    Uiso  ? Zr
   Zr35       1.0     0.265870     0.002149     0.004923    Uiso  ? Zr
   Zr36       1.0     0.248386     0.999543     0.411226    Uiso  ? Zr
   Zr37       1.0     0.265870     0.002149     0.615372    Uiso  ? Zr
   Zr38       1.0     0.248386     0.999543     0.209069    Uiso  ? Zr
   Zr39       1.0     0.758691     0.417444     0.007176    Uiso  ? Zr
   Zr40       1.0     0.764175     0.416041     0.411991    Uiso  ? Zr
   Zr41       1.0     0.738381     0.582814     0.002108    Uiso  ? Zr
   Zr42       1.0     0.759106     0.583064     0.412870    Uiso  ? Zr
   Zr43       1.0     0.259105     0.166937     0.207426    Uiso  ? Zr
   Zr44       1.0     0.238382     0.167187     0.618185    Uiso  ? Zr
   Zr45       1.0     0.238382     0.167187     0.002110    Uiso  ? Zr
   Zr46       1.0     0.259105     0.166937     0.412869    Uiso  ? Zr
   Zr47       1.0     0.738381     0.582814     0.618188    Uiso  ? Zr
   Zr48       1.0     0.759106     0.583064     0.207425    Uiso  ? Zr
   O1         1.0     0.501827     0.709131     0.200264    Uiso  ? O
   O2         1.0     0.511920     0.705920     0.611561    Uiso  ? O
   O3         1.0     0.511920     0.705920     0.008734    Uiso  ? O
   O4         1.0     0.501827     0.709131     0.420031    Uiso  ? O
   O5         1.0     0.993508     0.872510     0.012624    Uiso  ? O
   O6         1.0     0.951569     0.866473     0.418652    Uiso  ? O
   O7         1.0     0.951569     0.866473     0.201643    Uiso  ? O
   O8         1.0     0.993508     0.872510     0.607671    Uiso  ? O
   O9         1.0     0.503008     0.041571     0.189604    Uiso  ? O
   O10        1.0     0.506578     0.041579     0.582215    Uiso  ? O
   O11        1.0     0.493894     0.377138     0.013122    Uiso  ? O
   O12        1.0     0.451412     0.383450     0.418857    Uiso  ? O
   O13        1.0     0.451412     0.383450     0.201438    Uiso  ? O
   O14        1.0     0.493894     0.377138     0.607173    Uiso  ? O
   O15        1.0     0.506578     0.041579     0.038080    Uiso  ? O
   O16        1.0     0.503008     0.041571     0.430691    Uiso  ? O
   O17        1.0     0.005251     0.207961     0.037329    Uiso  ? O
   O18        1.0     0.003251     0.208339     0.430596    Uiso  ? O
   O19        1.0     0.002279     0.540979     0.200376    Uiso  ? O
   O20        1.0     0.008301     0.544107     0.612087    Uiso  ? O
   O21        1.0     0.008301     0.544107     0.008208    Uiso  ? O
   O22        1.0     0.002279     0.540979     0.419919    Uiso  ? O
   O23        1.0     0.003251     0.208339     0.189699    Uiso  ? O
   O24        1.0     0.005251     0.207961     0.582966    Uiso  ? O
   O25        1.0     0.451569     0.883528     0.201643    Uiso  ? O
   O26        1.0     0.493509     0.877491     0.607671    Uiso  ? O
   O27        1.0     0.505250     0.542039     0.037327    Uiso  ? O
   O28        1.0     0.503259     0.541661     0.430597    Uiso  ? O
   O29        1.0     0.503259     0.541661     0.189699    Uiso  ? O
   O30        1.0     0.505250     0.542039     0.582968    Uiso  ? O
   O31        1.0     0.493509     0.877491     0.012624    Uiso  ? O
   O32        1.0     0.451569     0.883528     0.418652    Uiso  ? O
   O33        1.0     0.011919     0.044081     0.008735    Uiso  ? O
   O34        1.0     0.001822     0.040869     0.420030    Uiso  ? O
   O35        1.0     0.003014     0.708430     0.189604    Uiso  ? O
   O36        1.0     0.006579     0.708422     0.582216    Uiso  ? O
   O37        1.0     0.006579     0.708422     0.038079    Uiso  ? O
   O38        1.0     0.003014     0.708430     0.430691    Uiso  ? O
   O39        1.0     0.001822     0.040869     0.200265    Uiso  ? O
   O40        1.0     0.011919     0.044081     0.611560    Uiso  ? O
   O41        1.0     0.502271     0.209023     0.200376    Uiso  ? O
   O42        1.0     0.508306     0.205893     0.612085    Uiso  ? O
   O43        1.0     0.508306     0.205893     0.008210    Uiso  ? O
   O44        1.0     0.502271     0.209023     0.419919    Uiso  ? O
   O45        1.0     0.993895     0.372862     0.013122    Uiso  ? O
   O46        1.0     0.951411     0.366551     0.418857    Uiso  ? O
   O47        1.0     0.951411     0.366551     0.201438    Uiso  ? O
   O48        1.0     0.993895     0.372862     0.607174    Uiso  ? O
   O49        1.0     0.529486     0.793193     0.610809    Uiso  ? O
   O50        1.0     0.543312     0.798139     0.215081    Uiso  ? O
   O51        1.0     0.460481     0.621415     0.002228    Uiso  ? O
   O52        1.0     0.469280     0.620582     0.400130    Uiso  ? O
   O53        1.0     0.460481     0.621415     0.618067    Uiso  ? O
   O54        1.0     0.469280     0.620582     0.220166    Uiso  ? O
   O55        1.0     0.529486     0.793193     0.009486    Uiso  ? O
   O56        1.0     0.543312     0.798139     0.405214    Uiso  ? O
   O57        1.0     0.029486     0.956808     0.009486    Uiso  ? O
   O58        1.0     0.043315     0.951861     0.405215    Uiso  ? O
   O59        1.0     0.028466     0.788029     0.616027    Uiso  ? O
   O60        1.0     0.043281     0.786622     0.222538    Uiso  ? O
   O61        1.0     0.028466     0.788029     0.004268    Uiso  ? O
   O62        1.0     0.043281     0.786622     0.397758    Uiso  ? O
   O63        1.0     0.029486     0.956808     0.610809    Uiso  ? O
   O64        1.0     0.043315     0.951861     0.215081    Uiso  ? O
   O65        1.0     0.455586     0.120641     0.618393    Uiso  ? O
   O66        1.0     0.468898     0.120410     0.220301    Uiso  ? O
   O67        1.0     0.525609     0.292729     0.009570    Uiso  ? O
   O68        1.0     0.543683     0.298147     0.405522    Uiso  ? O
   O69        1.0     0.525609     0.292729     0.610726    Uiso  ? O
   O70        1.0     0.543683     0.298147     0.214773    Uiso  ? O
   O71        1.0     0.455586     0.120641     0.001903    Uiso  ? O
   O72        1.0     0.468898     0.120410     0.399994    Uiso  ? O
   O73        1.0     0.025024     0.288083     0.004179    Uiso  ? O
   O74        1.0     0.042217     0.286679     0.397304    Uiso  ? O
   O75        1.0     0.025610     0.457271     0.610726    Uiso  ? O
   O76        1.0     0.043678     0.451855     0.214774    Uiso  ? O
   O77        1.0     0.025610     0.457271     0.009569    Uiso  ? O
   O78        1.0     0.043678     0.451855     0.405521    Uiso  ? O
   O79        1.0     0.025024     0.288083     0.616116    Uiso  ? O
   O80        1.0     0.042217     0.286679     0.222992    Uiso  ? O
   O81        1.0     0.525024     0.461917     0.616116    Uiso  ? O
   O82        1.0     0.542210     0.463321     0.222995    Uiso  ? O
   O83        1.0     0.528466     0.961971     0.004269    Uiso  ? O
   O84        1.0     0.543284     0.963379     0.397760    Uiso  ? O
   O85        1.0     0.528466     0.961971     0.616027    Uiso  ? O
   O86        1.0     0.543284     0.963379     0.222536    Uiso  ? O
   O87        1.0     0.525024     0.461917     0.004179    Uiso  ? O
   O88        1.0     0.542210     0.463321     0.397300    Uiso  ? O
   O89        1.0     0.955584     0.629360     0.001901    Uiso  ? O
   O90        1.0     0.968891     0.629592     0.399997    Uiso  ? O
   O91        1.0     0.960485     0.128585     0.618065    Uiso  ? O
   O92        1.0     0.969286     0.129418     0.220169    Uiso  ? O
   O93        1.0     0.960485     0.128585     0.002230    Uiso  ? O
   O94        1.0     0.969286     0.129418     0.400126    Uiso  ? O
   O95        1.0     0.955584     0.629360     0.618394    Uiso  ? O
   O96        1.0     0.968891     0.629592     0.220298    Uiso  ? O
   O97        1.0     0.788338     0.761655     0.107836    Uiso  ? O
   O98        1.0     0.788338     0.761655     0.512459    Uiso  ? O
   O99        1.0     0.242983     0.656674     0.106038    Uiso  ? O
   O100       1.0     0.242983     0.656674     0.514258    Uiso  ? O
   O101       1.0     0.718673     0.922398     0.107287    Uiso  ? O
   O102       1.0     0.718673     0.922398     0.513008    Uiso  ? O
   O103       1.0     0.218671     0.827603     0.107287    Uiso  ? O
   O104       1.0     0.218671     0.827603     0.513008    Uiso  ? O
   O105       1.0     0.742986     0.093327     0.106039    Uiso  ? O
   O106       1.0     0.742986     0.093327     0.514257    Uiso  ? O
   O107       1.0     0.216726     0.327214     0.107502    Uiso  ? O
   O108       1.0     0.216726     0.327214     0.512794    Uiso  ? O
   O109       1.0     0.788021     0.261237     0.107655    Uiso  ? O
   O110       1.0     0.788021     0.261237     0.512640    Uiso  ? O
   O111       1.0     0.288023     0.488764     0.107655    Uiso  ? O
   O112       1.0     0.288023     0.488764     0.512640    Uiso  ? O
   O113       1.0     0.716724     0.422787     0.107502    Uiso  ? O
   O114       1.0     0.716724     0.422787     0.512794    Uiso  ? O
   O115       1.0     0.288335     0.988346     0.107836    Uiso  ? O
   O116       1.0     0.288335     0.988346     0.512459    Uiso  ? O
   O117       1.0     0.742593     0.593297     0.105741    Uiso  ? O
   O118       1.0     0.742593     0.593297     0.514554    Uiso  ? O
   O119       1.0     0.242593     0.156703     0.105742    Uiso  ? O
   O120       1.0     0.242593     0.156703     0.514553    Uiso  ? O
   O121       1.0     0.803973     0.739382     0.310148    Uiso  ? O
   O122       1.0     0.202870     0.676975     0.310148    Uiso  ? O
   O123       1.0     0.732141     0.905997     0.310148    Uiso  ? O
   O124       1.0     0.232141     0.844004     0.310148    Uiso  ? O
   O125       1.0     0.702869     0.073024     0.310148    Uiso  ? O
   O126       1.0     0.232140     0.343993     0.310148    Uiso  ? O
   O127       1.0     0.803728     0.239133     0.310148    Uiso  ? O
   O128       1.0     0.303726     0.510869     0.310148    Uiso  ? O
   O129       1.0     0.732141     0.406007     0.310148    Uiso  ? O
   O130       1.0     0.303974     0.010617     0.310148    Uiso  ? O
   O131       1.0     0.703218     0.573244     0.310148    Uiso  ? O
   O132       1.0     0.203218     0.176759     0.310148    Uiso  ? O
   Pt1        1.0     0.969321     0.033876     0.717267    Uiso  ? Pt
   Pt2        1.0     0.935727     0.137419     0.719503    Uiso  ? Pt
   Pt3        1.0     0.986680     0.213155     0.732567    Uiso  ? Pt
   Pt4        1.0     0.994441     0.294319     0.717417    Uiso  ? Pt
   Pt5        1.0     0.004952     0.373730     0.713463    Uiso  ? Pt
   Pt6        1.0     0.016455     0.454880     0.714054    Uiso  ? Pt
   Pt7        1.0     0.954545     0.533552     0.717354    Uiso  ? Pt
   Pt8        1.0     0.987898     0.634188     0.721030    Uiso  ? Pt
   Pt9        1.0     0.985892     0.711402     0.733904    Uiso  ? Pt
   Pt10       1.0     0.999416     0.792982     0.717655    Uiso  ? Pt
   Pt11       1.0     0.006310     0.873341     0.713745    Uiso  ? Pt
   Pt12       1.0     0.018822     0.955230     0.714069    Uiso  ? Pt
   Pt13       1.0     0.485889     0.038600     0.733904    Uiso  ? Pt
   Pt14       1.0     0.487902     0.115814     0.721029    Uiso  ? Pt
   Pt15       1.0     0.454553     0.216446     0.717353    Uiso  ? Pt
   Pt16       1.0     0.516451     0.295117     0.714054    Uiso  ? Pt
   Pt17       1.0     0.504959     0.376268     0.713463    Uiso  ? Pt
   Pt18       1.0     0.494439     0.455679     0.717417    Uiso  ? Pt
   Pt19       1.0     0.486680     0.536844     0.732568    Uiso  ? Pt
   Pt20       1.0     0.435709     0.612579     0.719505    Uiso  ? Pt
   Pt21       1.0     0.469319     0.716126     0.717267    Uiso  ? Pt
   Pt22       1.0     0.518826     0.794771     0.714069    Uiso  ? Pt
   Pt23       1.0     0.506306     0.876660     0.713745    Uiso  ? Pt
   Pt24       1.0     0.499416     0.957020     0.717655    Uiso  ? Pt
   Pt25       1.0     0.969321     0.033876     0.903029    Uiso  ? Pt
   Pt26       1.0     0.935727     0.137419     0.900792    Uiso  ? Pt
   Pt27       1.0     0.986680     0.213155     0.887728    Uiso  ? Pt
   Pt28       1.0     0.994441     0.294319     0.902878    Uiso  ? Pt
   Pt29       1.0     0.004952     0.373730     0.906833    Uiso  ? Pt
   Pt30       1.0     0.016455     0.454880     0.906241    Uiso  ? Pt
   Pt31       1.0     0.954545     0.533552     0.902941    Uiso  ? Pt
   Pt32       1.0     0.987898     0.634188     0.899265    Uiso  ? Pt
   Pt33       1.0     0.985892     0.711402     0.886391    Uiso  ? Pt
   Pt34       1.0     0.999416     0.792982     0.902640    Uiso  ? Pt
   Pt35       1.0     0.006310     0.873341     0.906550    Uiso  ? Pt
   Pt36       1.0     0.018822     0.955230     0.906226    Uiso  ? Pt
   Pt37       1.0     0.485889     0.038600     0.886391    Uiso  ? Pt
   Pt38       1.0     0.487902     0.115814     0.899267    Uiso  ? Pt
   Pt39       1.0     0.454553     0.216446     0.902942    Uiso  ? Pt
   Pt40       1.0     0.516451     0.295117     0.906241    Uiso  ? Pt
   Pt41       1.0     0.504959     0.376268     0.906832    Uiso  ? Pt
   Pt42       1.0     0.494439     0.455679     0.902878    Uiso  ? Pt
   Pt43       1.0     0.486680     0.536844     0.887727    Uiso  ? Pt
   Pt44       1.0     0.435709     0.612579     0.900791    Uiso  ? Pt
   Pt45       1.0     0.469319     0.716126     0.903028    Uiso  ? Pt
   Pt46       1.0     0.518826     0.794771     0.906226    Uiso  ? Pt
   Pt47       1.0     0.506306     0.876660     0.906550    Uiso  ? Pt
   Pt48       1.0     0.499416     0.957020     0.902640    Uiso  ? Pt
   Pt49       1.0     0.233788     0.993425     0.810148    Uiso  ? Pt
   Pt50       1.0     0.204692     0.084014     0.810148    Uiso  ? Pt
   Pt51       1.0     0.241849     0.162983     0.810148    Uiso  ? Pt
   Pt52       1.0     0.255487     0.256777     0.810148    Uiso  ? Pt
   Pt53       1.0     0.257567     0.335740     0.810148    Uiso  ? Pt
   Pt54       1.0     0.256984     0.414258     0.810148    Uiso  ? Pt
   Pt55       1.0     0.227857     0.493600     0.810148    Uiso  ? Pt
   Pt56       1.0     0.192891     0.578855     0.810148    Uiso  ? Pt
   Pt57       1.0     0.263757     0.664798     0.810148    Uiso  ? Pt
   Pt58       1.0     0.262057     0.755712     0.810148    Uiso  ? Pt
   Pt59       1.0     0.259619     0.835340     0.810148    Uiso  ? Pt
   Pt60       1.0     0.257727     0.914145     0.810148    Uiso  ? Pt
   Pt61       1.0     0.762055     0.994290     0.810148    Uiso  ? Pt
   Pt62       1.0     0.763754     0.085203     0.810148    Uiso  ? Pt
   Pt63       1.0     0.692902     0.171142     0.810148    Uiso  ? Pt
   Pt64       1.0     0.727859     0.256399     0.810148    Uiso  ? Pt
   Pt65       1.0     0.756984     0.335741     0.810148    Uiso  ? Pt
   Pt66       1.0     0.757569     0.414259     0.810148    Uiso  ? Pt
   Pt67       1.0     0.755485     0.493221     0.810148    Uiso  ? Pt
   Pt68       1.0     0.741842     0.587018     0.810148    Uiso  ? Pt
   Pt69       1.0     0.704691     0.665987     0.810148    Uiso  ? Pt
   Pt70       1.0     0.733789     0.756577     0.810148    Uiso  ? Pt
   Pt71       1.0     0.757729     0.835857     0.810148    Uiso  ? Pt
   Pt72       1.0     0.759617     0.914662     0.810148    Uiso  ? Pt
