
#======================================================================
# CRYSTAL DATA
#----------------------------------------------------------------------
data_VESTA_phase_1

_chemical_name_common                  'isocif-output                         '
_cell_length_a                         16.490572
_cell_length_b                         16.490572
_cell_length_c                         20.128807
_cell_angle_alpha                      90.000000
_cell_angle_beta                       90.000000
_cell_angle_gamma                      90.383347
_cell_volume                           5473.684425
_space_group_name_H-M_alt              'P 1'
_space_group_IT_number                 1

loop_
_space_group_symop_operation_xyz
   'x, y, z'

loop_
   _atom_site_label
   _atom_site_occupancy
   _atom_site_fract_x
   _atom_site_fract_y
   _atom_site_fract_z
   _atom_site_adp_type
   _atom_site_U_iso_or_equiv
   _atom_site_type_symbol
   Pb1        1.0     0.262546     0.384600     0.310127    Uiso  ? Pb
   Pb2        1.0     0.762546     0.884600     0.310127    Uiso  ? Pb
   Pb3        1.0     0.012546     0.134600     0.310127    Uiso  ? Pb
   Pb4        1.0     0.512546     0.634600     0.310127    Uiso  ? Pb
   Pb5        1.0     0.987454     0.865400     0.310127    Uiso  ? Pb
   Pb6        1.0     0.487454     0.365400     0.310127    Uiso  ? Pb
   Pb7        1.0     0.737454     0.615400     0.310127    Uiso  ? Pb
   Pb8        1.0     0.237454     0.115400     0.310127    Uiso  ? Pb
   Pb9        1.0     0.990400     0.612454     0.310127    Uiso  ? Pb
   Pb10       1.0     0.490400     0.112454     0.310127    Uiso  ? Pb
   Pb11       1.0     0.740400     0.362454     0.310127    Uiso  ? Pb
   Pb12       1.0     0.240400     0.862454     0.310127    Uiso  ? Pb
   Pb13       1.0     0.259600     0.637546     0.310127    Uiso  ? Pb
   Pb14       1.0     0.759600     0.137546     0.310127    Uiso  ? Pb
   Pb15       1.0     0.009600     0.387546     0.310127    Uiso  ? Pb
   Pb16       1.0     0.509600     0.887546     0.310127    Uiso  ? Pb
   Pb17       1.0     0.756124     0.882402     0.510924    Uiso  ? Pb
   Pb18       1.0     0.256124     0.382402     0.510924    Uiso  ? Pb
   Pb19       1.0     0.256124     0.382402     0.109331    Uiso  ? Pb
   Pb20       1.0     0.756124     0.882402     0.109331    Uiso  ? Pb
   Pb21       1.0     0.006124     0.132402     0.510924    Uiso  ? Pb
   Pb22       1.0     0.006124     0.132402     0.109331    Uiso  ? Pb
   Pb23       1.0     0.506124     0.632402     0.510924    Uiso  ? Pb
   Pb24       1.0     0.506124     0.632402     0.109331    Uiso  ? Pb
   Pb25       1.0     0.493876     0.367598     0.510924    Uiso  ? Pb
   Pb26       1.0     0.993876     0.867598     0.510924    Uiso  ? Pb
   Pb27       1.0     0.993876     0.867598     0.109331    Uiso  ? Pb
   Pb28       1.0     0.493876     0.367598     0.109331    Uiso  ? Pb
   Pb29       1.0     0.743876     0.617598     0.510924    Uiso  ? Pb
   Pb30       1.0     0.743876     0.617598     0.109331    Uiso  ? Pb
   Pb31       1.0     0.243876     0.117598     0.510924    Uiso  ? Pb
   Pb32       1.0     0.243876     0.117598     0.109331    Uiso  ? Pb
   Pb33       1.0     0.492598     0.118876     0.510924    Uiso  ? Pb
   Pb34       1.0     0.992598     0.618876     0.510924    Uiso  ? Pb
   Pb35       1.0     0.992598     0.618876     0.109331    Uiso  ? Pb
   Pb36       1.0     0.492598     0.118876     0.109331    Uiso  ? Pb
   Pb37       1.0     0.742598     0.368876     0.510924    Uiso  ? Pb
   Pb38       1.0     0.742598     0.368876     0.109331    Uiso  ? Pb
   Pb39       1.0     0.242598     0.868876     0.510924    Uiso  ? Pb
   Pb40       1.0     0.242598     0.868876     0.109331    Uiso  ? Pb
   Pb41       1.0     0.757402     0.131124     0.510924    Uiso  ? Pb
   Pb42       1.0     0.257402     0.631124     0.510924    Uiso  ? Pb
   Pb43       1.0     0.257402     0.631124     0.109331    Uiso  ? Pb
   Pb44       1.0     0.757402     0.131124     0.109331    Uiso  ? Pb
   Pb45       1.0     0.007402     0.381124     0.510924    Uiso  ? Pb
   Pb46       1.0     0.007402     0.381124     0.109331    Uiso  ? Pb
   Pb47       1.0     0.507402     0.881124     0.510924    Uiso  ? Pb
   Pb48       1.0     0.507402     0.881124     0.109331    Uiso  ? Pb
   Zr1        1.0     0.872142     0.002990     0.610922    Uiso  ? Zr
   Zr2        1.0     0.372142     0.502990     0.610922    Uiso  ? Zr
   Zr3        1.0     0.376699     0.502012     0.209556    Uiso  ? Zr
   Zr4        1.0     0.876699     0.002012     0.209556    Uiso  ? Zr
   Zr5        1.0     0.122142     0.252990     0.610922    Uiso  ? Zr
   Zr6        1.0     0.126699     0.252012     0.209556    Uiso  ? Zr
   Zr7        1.0     0.622142     0.752990     0.610922    Uiso  ? Zr
   Zr8        1.0     0.626699     0.752012     0.209556    Uiso  ? Zr
   Zr9        1.0     0.373301     0.247988     0.410699    Uiso  ? Zr
   Zr10       1.0     0.873301     0.747988     0.410699    Uiso  ? Zr
   Zr11       1.0     0.877858     0.747010     0.009332    Uiso  ? Zr
   Zr12       1.0     0.377858     0.247010     0.009332    Uiso  ? Zr
   Zr13       1.0     0.623301     0.497988     0.410699    Uiso  ? Zr
   Zr14       1.0     0.627858     0.497010     0.009332    Uiso  ? Zr
   Zr15       1.0     0.123301     0.997988     0.410699    Uiso  ? Zr
   Zr16       1.0     0.127858     0.997010     0.009332    Uiso  ? Zr
   Zr17       1.0     0.377858     0.247010     0.610922    Uiso  ? Zr
   Zr18       1.0     0.877858     0.747010     0.610922    Uiso  ? Zr
   Zr19       1.0     0.873301     0.747988     0.209556    Uiso  ? Zr
   Zr20       1.0     0.373301     0.247988     0.209556    Uiso  ? Zr
   Zr21       1.0     0.627858     0.497010     0.610922    Uiso  ? Zr
   Zr22       1.0     0.623301     0.497988     0.209556    Uiso  ? Zr
   Zr23       1.0     0.127858     0.997010     0.610922    Uiso  ? Zr
   Zr24       1.0     0.123301     0.997988     0.209556    Uiso  ? Zr
   Zr25       1.0     0.876699     0.002012     0.410699    Uiso  ? Zr
   Zr26       1.0     0.376699     0.502012     0.410699    Uiso  ? Zr
   Zr27       1.0     0.372142     0.502990     0.009332    Uiso  ? Zr
   Zr28       1.0     0.872142     0.002990     0.009332    Uiso  ? Zr
   Zr29       1.0     0.126699     0.252012     0.410699    Uiso  ? Zr
   Zr30       1.0     0.122142     0.252990     0.009332    Uiso  ? Zr
   Zr31       1.0     0.626699     0.752012     0.410699    Uiso  ? Zr
   Zr32       1.0     0.622142     0.752990     0.009332    Uiso  ? Zr
   Zr33       1.0     0.622988     0.248301     0.410699    Uiso  ? Zr
   Zr34       1.0     0.122988     0.748301     0.410699    Uiso  ? Zr
   Zr35       1.0     0.122010     0.752858     0.009332    Uiso  ? Zr
   Zr36       1.0     0.622010     0.252858     0.009332    Uiso  ? Zr
   Zr37       1.0     0.872988     0.498301     0.410699    Uiso  ? Zr
   Zr38       1.0     0.872010     0.502858     0.009332    Uiso  ? Zr
   Zr39       1.0     0.372988     0.998301     0.410699    Uiso  ? Zr
   Zr40       1.0     0.372010     0.002858     0.009332    Uiso  ? Zr
   Zr41       1.0     0.627990     0.997142     0.610922    Uiso  ? Zr
   Zr42       1.0     0.127990     0.497142     0.610922    Uiso  ? Zr
   Zr43       1.0     0.127012     0.501699     0.209556    Uiso  ? Zr
   Zr44       1.0     0.627012     0.001699     0.209556    Uiso  ? Zr
   Zr45       1.0     0.877990     0.247142     0.610922    Uiso  ? Zr
   Zr46       1.0     0.877012     0.251699     0.209556    Uiso  ? Zr
   Zr47       1.0     0.377990     0.747142     0.610922    Uiso  ? Zr
   Zr48       1.0     0.377012     0.751699     0.209556    Uiso  ? Zr
   Zr49       1.0     0.627012     0.001699     0.410699    Uiso  ? Zr
   Zr50       1.0     0.127012     0.501699     0.410699    Uiso  ? Zr
   Zr51       1.0     0.127990     0.497142     0.009332    Uiso  ? Zr
   Zr52       1.0     0.627990     0.997142     0.009332    Uiso  ? Zr
   Zr53       1.0     0.877012     0.251699     0.410699    Uiso  ? Zr
   Zr54       1.0     0.877990     0.247142     0.009332    Uiso  ? Zr
   Zr55       1.0     0.377012     0.751699     0.410699    Uiso  ? Zr
   Zr56       1.0     0.377990     0.747142     0.009332    Uiso  ? Zr
   Zr57       1.0     0.622010     0.252858     0.610922    Uiso  ? Zr
   Zr58       1.0     0.122010     0.752858     0.610922    Uiso  ? Zr
   Zr59       1.0     0.122988     0.748301     0.209556    Uiso  ? Zr
   Zr60       1.0     0.622988     0.248301     0.209556    Uiso  ? Zr
   Zr61       1.0     0.872010     0.502858     0.610922    Uiso  ? Zr
   Zr62       1.0     0.872988     0.498301     0.209556    Uiso  ? Zr
   Zr63       1.0     0.372010     0.002858     0.610922    Uiso  ? Zr
   Zr64       1.0     0.372988     0.998301     0.209556    Uiso  ? Zr
   O1         1.0     -0.000000     -0.000000     0.613374    Uiso  ? O
   O2         1.0     0.500000     0.500000     0.613374    Uiso  ? O
   O3         1.0     0.500000     0.500000     0.220435    Uiso  ? O
   O4         1.0     -0.000000     -0.000000     0.220435    Uiso  ? O
   O5         1.0     0.250000     0.250000     0.613374    Uiso  ? O
   O6         1.0     0.250000     0.250000     0.220435    Uiso  ? O
   O7         1.0     0.750000     0.750000     0.613374    Uiso  ? O
   O8         1.0     0.750000     0.750000     0.220435    Uiso  ? O
   O9         1.0     -0.000000     -0.000000     0.399820    Uiso  ? O
   O10        1.0     0.500000     0.500000     0.399820    Uiso  ? O
   O11        1.0     0.500000     0.500000     0.006881    Uiso  ? O
   O12        1.0     -0.000000     -0.000000     0.006881    Uiso  ? O
   O13        1.0     0.250000     0.250000     0.399820    Uiso  ? O
   O14        1.0     0.250000     0.250000     0.006881    Uiso  ? O
   O15        1.0     0.750000     0.750000     0.399820    Uiso  ? O
   O16        1.0     0.750000     0.750000     0.006881    Uiso  ? O
   O17        1.0     0.625000     0.125000     0.399820    Uiso  ? O
   O18        1.0     0.125000     0.625000     0.399820    Uiso  ? O
   O19        1.0     0.125000     0.625000     0.006881    Uiso  ? O
   O20        1.0     0.625000     0.125000     0.006881    Uiso  ? O
   O21        1.0     0.875000     0.375000     0.399820    Uiso  ? O
   O22        1.0     0.875000     0.375000     0.006881    Uiso  ? O
   O23        1.0     0.375000     0.875000     0.399820    Uiso  ? O
   O24        1.0     0.375000     0.875000     0.006881    Uiso  ? O
   O25        1.0     0.625000     0.125000     0.613374    Uiso  ? O
   O26        1.0     0.125000     0.625000     0.613374    Uiso  ? O
   O27        1.0     0.125000     0.625000     0.220435    Uiso  ? O
   O28        1.0     0.625000     0.125000     0.220435    Uiso  ? O
   O29        1.0     0.875000     0.375000     0.613374    Uiso  ? O
   O30        1.0     0.875000     0.375000     0.220435    Uiso  ? O
   O31        1.0     0.375000     0.875000     0.613374    Uiso  ? O
   O32        1.0     0.375000     0.875000     0.220435    Uiso  ? O
   O33        1.0     0.750000     0.250000     0.618186    Uiso  ? O
   O34        1.0     0.250000     0.750000     0.618186    Uiso  ? O
   O35        1.0     0.250000     0.750000     0.228269    Uiso  ? O
   O36        1.0     0.750000     0.250000     0.228269    Uiso  ? O
   O37        1.0     0.000000     0.500000     0.618186    Uiso  ? O
   O38        1.0     0.000000     0.500000     0.228269    Uiso  ? O
   O39        1.0     0.500000     -0.000000     0.618186    Uiso  ? O
   O40        1.0     0.500000     -0.000000     0.228269    Uiso  ? O
   O41        1.0     0.750000     0.250000     0.391985    Uiso  ? O
   O42        1.0     0.250000     0.750000     0.391985    Uiso  ? O
   O43        1.0     0.250000     0.750000     0.002069    Uiso  ? O
   O44        1.0     0.750000     0.250000     0.002069    Uiso  ? O
   O45        1.0     0.000000     0.500000     0.391985    Uiso  ? O
   O46        1.0     0.000000     0.500000     0.002069    Uiso  ? O
   O47        1.0     0.500000     -0.000000     0.391985    Uiso  ? O
   O48        1.0     0.500000     -0.000000     0.002069    Uiso  ? O
   O49        1.0     0.875000     0.875000     0.391985    Uiso  ? O
   O50        1.0     0.375000     0.375000     0.391985    Uiso  ? O
   O51        1.0     0.375000     0.375000     0.002069    Uiso  ? O
   O52        1.0     0.875000     0.875000     0.002069    Uiso  ? O
   O53        1.0     0.125000     0.125000     0.391985    Uiso  ? O
   O54        1.0     0.125000     0.125000     0.002069    Uiso  ? O
   O55        1.0     0.625000     0.625000     0.391985    Uiso  ? O
   O56        1.0     0.625000     0.625000     0.002069    Uiso  ? O
   O57        1.0     0.875000     0.875000     0.618186    Uiso  ? O
   O58        1.0     0.375000     0.375000     0.618186    Uiso  ? O
   O59        1.0     0.375000     0.375000     0.228269    Uiso  ? O
   O60        1.0     0.875000     0.875000     0.228269    Uiso  ? O
   O61        1.0     0.125000     0.125000     0.618186    Uiso  ? O
   O62        1.0     0.125000     0.125000     0.228269    Uiso  ? O
   O63        1.0     0.625000     0.625000     0.618186    Uiso  ? O
   O64        1.0     0.625000     0.625000     0.228269    Uiso  ? O
   O65        1.0     0.870381     0.124018     0.589114    Uiso  ? O
   O66        1.0     0.370381     0.624018     0.589114    Uiso  ? O
   O67        1.0     0.361958     0.623577     0.195702    Uiso  ? O
   O68        1.0     0.861958     0.123577     0.195702    Uiso  ? O
   O69        1.0     0.120381     0.374018     0.589114    Uiso  ? O
   O70        1.0     0.111958     0.373577     0.195702    Uiso  ? O
   O71        1.0     0.620381     0.874018     0.589114    Uiso  ? O
   O72        1.0     0.611958     0.873577     0.195702    Uiso  ? O
   O73        1.0     0.388042     0.126423     0.424553    Uiso  ? O
   O74        1.0     0.888042     0.626423     0.424553    Uiso  ? O
   O75        1.0     0.879619     0.625982     0.031140    Uiso  ? O
   O76        1.0     0.379619     0.125982     0.031140    Uiso  ? O
   O77        1.0     0.638042     0.376423     0.424553    Uiso  ? O
   O78        1.0     0.629619     0.375982     0.031140    Uiso  ? O
   O79        1.0     0.138042     0.876423     0.424553    Uiso  ? O
   O80        1.0     0.129619     0.875982     0.031140    Uiso  ? O
   O81        1.0     0.379619     0.125982     0.589114    Uiso  ? O
   O82        1.0     0.879619     0.625982     0.589114    Uiso  ? O
   O83        1.0     0.888042     0.626423     0.195702    Uiso  ? O
   O84        1.0     0.388042     0.126423     0.195702    Uiso  ? O
   O85        1.0     0.629619     0.375982     0.589114    Uiso  ? O
   O86        1.0     0.638042     0.376423     0.195702    Uiso  ? O
   O87        1.0     0.129619     0.875982     0.589114    Uiso  ? O
   O88        1.0     0.138042     0.876423     0.195702    Uiso  ? O
   O89        1.0     0.861958     0.123577     0.424553    Uiso  ? O
   O90        1.0     0.361958     0.623577     0.424553    Uiso  ? O
   O91        1.0     0.370381     0.624018     0.031140    Uiso  ? O
   O92        1.0     0.870381     0.124018     0.031140    Uiso  ? O
   O93        1.0     0.111958     0.373577     0.424553    Uiso  ? O
   O94        1.0     0.120381     0.374018     0.031140    Uiso  ? O
   O95        1.0     0.611958     0.873577     0.424553    Uiso  ? O
   O96        1.0     0.620381     0.874018     0.031140    Uiso  ? O
   O97        1.0     0.501423     0.263042     0.424553    Uiso  ? O
   O98        1.0     0.001423     0.763042     0.424553    Uiso  ? O
   O99        1.0     0.000982     0.754619     0.031140    Uiso  ? O
   O100       1.0     0.500982     0.254619     0.031140    Uiso  ? O
   O101       1.0     0.751423     0.513042     0.424553    Uiso  ? O
   O102       1.0     0.750982     0.504619     0.031140    Uiso  ? O
   O103       1.0     0.251423     0.013042     0.424553    Uiso  ? O
   O104       1.0     0.250982     0.004619     0.031140    Uiso  ? O
   O105       1.0     0.749018     0.995381     0.589114    Uiso  ? O
   O106       1.0     0.249018     0.495381     0.589114    Uiso  ? O
   O107       1.0     0.248577     0.486958     0.195702    Uiso  ? O
   O108       1.0     0.748577     0.986958     0.195702    Uiso  ? O
   O109       1.0     0.999018     0.245381     0.589114    Uiso  ? O
   O110       1.0     0.998576     0.236958     0.195702    Uiso  ? O
   O111       1.0     0.499018     0.745381     0.589114    Uiso  ? O
   O112       1.0     0.498577     0.736958     0.195702    Uiso  ? O
   O113       1.0     0.748577     0.986958     0.424553    Uiso  ? O
   O114       1.0     0.248577     0.486958     0.424553    Uiso  ? O
   O115       1.0     0.249018     0.495381     0.031140    Uiso  ? O
   O116       1.0     0.749018     0.995381     0.031140    Uiso  ? O
   O117       1.0     0.998576     0.236958     0.424553    Uiso  ? O
   O118       1.0     0.999018     0.245381     0.031140    Uiso  ? O
   O119       1.0     0.498577     0.736958     0.424553    Uiso  ? O
   O120       1.0     0.499018     0.745381     0.031140    Uiso  ? O
   O121       1.0     0.500982     0.254619     0.589114    Uiso  ? O
   O122       1.0     0.000982     0.754619     0.589114    Uiso  ? O
   O123       1.0     0.001423     0.763042     0.195702    Uiso  ? O
   O124       1.0     0.501423     0.263042     0.195702    Uiso  ? O
   O125       1.0     0.750982     0.504619     0.589114    Uiso  ? O
   O126       1.0     0.751423     0.513042     0.195702    Uiso  ? O
   O127       1.0     0.250982     0.004619     0.589114    Uiso  ? O
   O128       1.0     0.251423     0.013042     0.195702    Uiso  ? O
   O129       1.0     0.350981     0.510816     0.310127    Uiso  ? O
   O130       1.0     0.850981     0.010816     0.310127    Uiso  ? O
   O131       1.0     0.100981     0.260816     0.310127    Uiso  ? O
   O132       1.0     0.600981     0.760816     0.310127    Uiso  ? O
   O133       1.0     0.899019     0.739184     0.310127    Uiso  ? O
   O134       1.0     0.399019     0.239184     0.310127    Uiso  ? O
   O135       1.0     0.649019     0.489184     0.310127    Uiso  ? O
   O136       1.0     0.149019     0.989184     0.310127    Uiso  ? O
   O137       1.0     0.114184     0.774019     0.310127    Uiso  ? O
   O138       1.0     0.614184     0.274019     0.310127    Uiso  ? O
   O139       1.0     0.864184     0.524019     0.310127    Uiso  ? O
   O140       1.0     0.364184     0.024019     0.310127    Uiso  ? O
   O141       1.0     0.135816     0.475981     0.310127    Uiso  ? O
   O142       1.0     0.635816     0.975981     0.310127    Uiso  ? O
   O143       1.0     0.885816     0.225981     0.310127    Uiso  ? O
   O144       1.0     0.385816     0.725981     0.310127    Uiso  ? O
   O145       1.0     0.882570     0.975108     0.511833    Uiso  ? O
   O146       1.0     0.382570     0.475108     0.511833    Uiso  ? O
   O147       1.0     0.382570     0.475108     0.108421    Uiso  ? O
   O148       1.0     0.882570     0.975108     0.108421    Uiso  ? O
   O149       1.0     0.132570     0.225108     0.511833    Uiso  ? O
   O150       1.0     0.132570     0.225108     0.108421    Uiso  ? O
   O151       1.0     0.632570     0.725108     0.511833    Uiso  ? O
   O152       1.0     0.632570     0.725108     0.108421    Uiso  ? O
   O153       1.0     0.367430     0.274892     0.511833    Uiso  ? O
   O154       1.0     0.867430     0.774892     0.511833    Uiso  ? O
   O155       1.0     0.867430     0.774892     0.108421    Uiso  ? O
   O156       1.0     0.367430     0.274892     0.108421    Uiso  ? O
   O157       1.0     0.617430     0.524892     0.511833    Uiso  ? O
   O158       1.0     0.617430     0.524892     0.108421    Uiso  ? O
   O159       1.0     0.117430     0.024892     0.511833    Uiso  ? O
   O160       1.0     0.117430     0.024892     0.108421    Uiso  ? O
   O161       1.0     0.649892     0.242430     0.511833    Uiso  ? O
   O162       1.0     0.149892     0.742430     0.511833    Uiso  ? O
   O163       1.0     0.149892     0.742430     0.108421    Uiso  ? O
   O164       1.0     0.649892     0.242430     0.108421    Uiso  ? O
   O165       1.0     0.899892     0.492430     0.511833    Uiso  ? O
   O166       1.0     0.899892     0.492430     0.108421    Uiso  ? O
   O167       1.0     0.399892     0.992430     0.511833    Uiso  ? O
   O168       1.0     0.399892     0.992430     0.108421    Uiso  ? O
   O169       1.0     0.600108     0.007570     0.511833    Uiso  ? O
   O170       1.0     0.100108     0.507570     0.511833    Uiso  ? O
   O171       1.0     0.100108     0.507570     0.108421    Uiso  ? O
   O172       1.0     0.600108     0.007570     0.108421    Uiso  ? O
   O173       1.0     0.850108     0.257570     0.511833    Uiso  ? O
   O174       1.0     0.850108     0.257570     0.108421    Uiso  ? O
   O175       1.0     0.350108     0.757570     0.511833    Uiso  ? O
   O176       1.0     0.350108     0.757570     0.108421    Uiso  ? O
   Pt1        1.0     -0.000000     -0.000000     0.714643    Uiso  ? Pt
   Pt2        1.0     0.000441     0.256932     0.725870    Uiso  ? Pt
   Pt3        1.0     0.000000     0.500000     0.717703    Uiso  ? Pt
   Pt4        1.0     0.999559     0.743068     0.725870    Uiso  ? Pt
   Pt5        1.0     0.249559     0.993068     0.725870    Uiso  ? Pt
   Pt6        1.0     0.250000     0.250000     0.714643    Uiso  ? Pt
   Pt7        1.0     0.250441     0.506932     0.725870    Uiso  ? Pt
   Pt8        1.0     0.250000     0.750000     0.717703    Uiso  ? Pt
   Pt9        1.0     0.500000     -0.000000     0.717703    Uiso  ? Pt
   Pt10       1.0     0.499559     0.243068     0.725870    Uiso  ? Pt
   Pt11       1.0     0.500000     0.500000     0.714643    Uiso  ? Pt
   Pt12       1.0     0.500441     0.756932     0.725870    Uiso  ? Pt
   Pt13       1.0     0.750441     0.006932     0.725870    Uiso  ? Pt
   Pt14       1.0     0.750000     0.250000     0.717703    Uiso  ? Pt
   Pt15       1.0     0.749559     0.493068     0.725870    Uiso  ? Pt
   Pt16       1.0     0.750000     0.750000     0.714643    Uiso  ? Pt
   Pt17       1.0     -0.000000     -0.000000     0.905611    Uiso  ? Pt
   Pt18       1.0     0.000441     0.256932     0.894385    Uiso  ? Pt
   Pt19       1.0     0.000000     0.500000     0.902551    Uiso  ? Pt
   Pt20       1.0     0.999559     0.743068     0.894385    Uiso  ? Pt
   Pt21       1.0     0.249559     0.993068     0.894385    Uiso  ? Pt
   Pt22       1.0     0.250000     0.250000     0.905611    Uiso  ? Pt
   Pt23       1.0     0.250441     0.506932     0.894385    Uiso  ? Pt
   Pt24       1.0     0.250000     0.750000     0.902551    Uiso  ? Pt
   Pt25       1.0     0.500000     -0.000000     0.902551    Uiso  ? Pt
   Pt26       1.0     0.499559     0.243068     0.894385    Uiso  ? Pt
   Pt27       1.0     0.500000     0.500000     0.905611    Uiso  ? Pt
   Pt28       1.0     0.500441     0.756932     0.894385    Uiso  ? Pt
   Pt29       1.0     0.750441     0.006932     0.894385    Uiso  ? Pt
   Pt30       1.0     0.750000     0.250000     0.902551    Uiso  ? Pt
   Pt31       1.0     0.749559     0.493068     0.894385    Uiso  ? Pt
   Pt32       1.0     0.750000     0.750000     0.905611    Uiso  ? Pt
   Pt33       1.0     0.005650     0.125083     0.810127    Uiso  ? Pt
   Pt34       1.0     0.000083     0.380650     0.810127    Uiso  ? Pt
   Pt35       1.0     0.999917     0.619350     0.810127    Uiso  ? Pt
   Pt36       1.0     0.994350     0.874917     0.810127    Uiso  ? Pt
   Pt37       1.0     0.244350     0.124917     0.810127    Uiso  ? Pt
   Pt38       1.0     0.255650     0.375083     0.810127    Uiso  ? Pt
   Pt39       1.0     0.250083     0.630650     0.810127    Uiso  ? Pt
   Pt40       1.0     0.249917     0.869350     0.810127    Uiso  ? Pt
   Pt41       1.0     0.499917     0.119350     0.810127    Uiso  ? Pt
   Pt42       1.0     0.494350     0.374917     0.810127    Uiso  ? Pt
   Pt43       1.0     0.505650     0.625083     0.810127    Uiso  ? Pt
   Pt44       1.0     0.500083     0.880650     0.810127    Uiso  ? Pt
   Pt45       1.0     0.750083     0.130650     0.810127    Uiso  ? Pt
   Pt46       1.0     0.749917     0.369350     0.810127    Uiso  ? Pt
   Pt47       1.0     0.744350     0.624917     0.810127    Uiso  ? Pt
   Pt48       1.0     0.755650     0.875083     0.810127    Uiso  ? Pt
   Pt49       1.0     0.118813     0.003326     0.810127    Uiso  ? Pt
   Pt50       1.0     0.131187     0.246674     0.810127    Uiso  ? Pt
   Pt51       1.0     0.121674     0.506187     0.810127    Uiso  ? Pt
   Pt52       1.0     0.128326     0.743813     0.810127    Uiso  ? Pt
   Pt53       1.0     0.378326     0.993813     0.810127    Uiso  ? Pt
   Pt54       1.0     0.368813     0.253326     0.810127    Uiso  ? Pt
   Pt55       1.0     0.381187     0.496674     0.810127    Uiso  ? Pt
   Pt56       1.0     0.371674     0.756187     0.810127    Uiso  ? Pt
   Pt57       1.0     0.621674     0.006187     0.810127    Uiso  ? Pt
   Pt58       1.0     0.628326     0.243813     0.810127    Uiso  ? Pt
   Pt59       1.0     0.618813     0.503326     0.810127    Uiso  ? Pt
   Pt60       1.0     0.631187     0.746674     0.810127    Uiso  ? Pt
   Pt61       1.0     0.881187     0.996674     0.810127    Uiso  ? Pt
   Pt62       1.0     0.871674     0.256187     0.810127    Uiso  ? Pt
   Pt63       1.0     0.878326     0.493813     0.810127    Uiso  ? Pt
   Pt64       1.0     0.868813     0.753326     0.810127    Uiso  ? Pt
   Pt65       1.0     0.125000     0.125000     0.717703    Uiso  ? Pt
   Pt66       1.0     0.131932     0.375441     0.725870    Uiso  ? Pt
   Pt67       1.0     0.125000     0.625000     0.714643    Uiso  ? Pt
   Pt68       1.0     0.118068     0.874559     0.725870    Uiso  ? Pt
   Pt69       1.0     0.368068     0.124559     0.725870    Uiso  ? Pt
   Pt70       1.0     0.375000     0.375000     0.717703    Uiso  ? Pt
   Pt71       1.0     0.381932     0.625441     0.725870    Uiso  ? Pt
   Pt72       1.0     0.375000     0.875000     0.714643    Uiso  ? Pt
   Pt73       1.0     0.625000     0.125000     0.714643    Uiso  ? Pt
   Pt74       1.0     0.618068     0.374559     0.725870    Uiso  ? Pt
   Pt75       1.0     0.625000     0.625000     0.717703    Uiso  ? Pt
   Pt76       1.0     0.631932     0.875441     0.725870    Uiso  ? Pt
   Pt77       1.0     0.881932     0.125441     0.725870    Uiso  ? Pt
   Pt78       1.0     0.875000     0.375000     0.714643    Uiso  ? Pt
   Pt79       1.0     0.868068     0.624559     0.725870    Uiso  ? Pt
   Pt80       1.0     0.875000     0.875000     0.717703    Uiso  ? Pt
   Pt81       1.0     0.125000     0.125000     0.902551    Uiso  ? Pt
   Pt82       1.0     0.131932     0.375441     0.894385    Uiso  ? Pt
   Pt83       1.0     0.125000     0.625000     0.905611    Uiso  ? Pt
   Pt84       1.0     0.118068     0.874559     0.894385    Uiso  ? Pt
   Pt85       1.0     0.368068     0.124559     0.894385    Uiso  ? Pt
   Pt86       1.0     0.375000     0.375000     0.902551    Uiso  ? Pt
   Pt87       1.0     0.381932     0.625441     0.894385    Uiso  ? Pt
   Pt88       1.0     0.375000     0.875000     0.905611    Uiso  ? Pt
   Pt89       1.0     0.625000     0.125000     0.905611    Uiso  ? Pt
   Pt90       1.0     0.618068     0.374559     0.894385    Uiso  ? Pt
   Pt91       1.0     0.625000     0.625000     0.902551    Uiso  ? Pt
   Pt92       1.0     0.631932     0.875441     0.894385    Uiso  ? Pt
   Pt93       1.0     0.881932     0.125441     0.894385    Uiso  ? Pt
   Pt94       1.0     0.875000     0.375000     0.905611    Uiso  ? Pt
   Pt95       1.0     0.868068     0.624559     0.894385    Uiso  ? Pt
   Pt96       1.0     0.875000     0.875000     0.902551    Uiso  ? Pt
