
#======================================================================
# CRYSTAL DATA
#----------------------------------------------------------------------
data_VESTA_phase_1

_chemical_name_common                  'findsym-output                        '
_cell_length_a                         16.420637
_cell_length_b                         16.420872
_cell_length_c                         20.150427
_cell_angle_alpha                      90.000000
_cell_angle_beta                       90.000000
_cell_angle_gamma                      90.110001
_cell_volume                           5433.374786
_space_group_name_H-M_alt              'P 1'
_space_group_IT_number                 1

loop_
_space_group_symop_operation_xyz
   'x, y, z'

loop_
   _atom_site_label
   _atom_site_occupancy
   _atom_site_fract_x
   _atom_site_fract_y
   _atom_site_fract_z
   _atom_site_adp_type
   _atom_site_U_iso_or_equiv
   _atom_site_type_symbol
   Pb1        1.0     0.365374     0.008323     0.296389    Uiso  ? Pb
   Pb2        1.0     0.365374     0.508323     0.296389    Uiso  ? Pb
   Pb3        1.0     0.865374     0.008323     0.296389    Uiso  ? Pb
   Pb4        1.0     0.865374     0.508323     0.296389    Uiso  ? Pb
   Pb5        1.0     0.369609     0.253420     0.095673    Uiso  ? Pb
   Pb6        1.0     0.369609     0.753420     0.095673    Uiso  ? Pb
   Pb7        1.0     0.869609     0.253420     0.095673    Uiso  ? Pb
   Pb8        1.0     0.869609     0.753420     0.095673    Uiso  ? Pb
   Pb9        1.0     0.364334     0.254097     0.502162    Uiso  ? Pb
   Pb10       1.0     0.364334     0.754097     0.502162    Uiso  ? Pb
   Pb11       1.0     0.864334     0.254097     0.502162    Uiso  ? Pb
   Pb12       1.0     0.864334     0.754097     0.502162    Uiso  ? Pb
   Pb13       1.0     0.365963     0.258780     0.296314    Uiso  ? Pb
   Pb14       1.0     0.365963     0.758780     0.296314    Uiso  ? Pb
   Pb15       1.0     0.865963     0.258780     0.296314    Uiso  ? Pb
   Pb16       1.0     0.865963     0.758780     0.296314    Uiso  ? Pb
   Pb17       1.0     0.370527     0.004630     0.094873    Uiso  ? Pb
   Pb18       1.0     0.370527     0.504630     0.094873    Uiso  ? Pb
   Pb19       1.0     0.870527     0.004630     0.094873    Uiso  ? Pb
   Pb20       1.0     0.870527     0.504630     0.094873    Uiso  ? Pb
   Pb21       1.0     0.369116     0.008979     0.499269    Uiso  ? Pb
   Pb22       1.0     0.369116     0.508979     0.499269    Uiso  ? Pb
   Pb23       1.0     0.869116     0.008979     0.499269    Uiso  ? Pb
   Pb24       1.0     0.869116     0.508979     0.499269    Uiso  ? Pb
   Pb25       1.0     0.119609     0.003420     0.095673    Uiso  ? Pb
   Pb26       1.0     0.119609     0.503420     0.095673    Uiso  ? Pb
   Pb27       1.0     0.619609     0.003420     0.095673    Uiso  ? Pb
   Pb28       1.0     0.619609     0.503420     0.095673    Uiso  ? Pb
   Pb29       1.0     0.114334     0.004097     0.502162    Uiso  ? Pb
   Pb30       1.0     0.114334     0.504097     0.502162    Uiso  ? Pb
   Pb31       1.0     0.614334     0.004097     0.502162    Uiso  ? Pb
   Pb32       1.0     0.614334     0.504097     0.502162    Uiso  ? Pb
   Pb33       1.0     0.115374     0.258323     0.296389    Uiso  ? Pb
   Pb34       1.0     0.115374     0.758323     0.296389    Uiso  ? Pb
   Pb35       1.0     0.615374     0.258323     0.296389    Uiso  ? Pb
   Pb36       1.0     0.615374     0.758323     0.296389    Uiso  ? Pb
   Pb37       1.0     0.115963     0.008780     0.296314    Uiso  ? Pb
   Pb38       1.0     0.115963     0.508780     0.296314    Uiso  ? Pb
   Pb39       1.0     0.615963     0.008780     0.296314    Uiso  ? Pb
   Pb40       1.0     0.615963     0.508780     0.296314    Uiso  ? Pb
   Pb41       1.0     0.120527     0.254630     0.094873    Uiso  ? Pb
   Pb42       1.0     0.120527     0.754630     0.094873    Uiso  ? Pb
   Pb43       1.0     0.620527     0.254630     0.094873    Uiso  ? Pb
   Pb44       1.0     0.620527     0.754630     0.094873    Uiso  ? Pb
   Pb45       1.0     0.119116     0.258979     0.499269    Uiso  ? Pb
   Pb46       1.0     0.119116     0.758979     0.499269    Uiso  ? Pb
   Pb47       1.0     0.619116     0.258979     0.499269    Uiso  ? Pb
   Pb48       1.0     0.619116     0.758979     0.499269    Uiso  ? Pb
   Zr1        1.0     0.499577     0.124270     0.200689    Uiso  ? Zr
   Zr2        1.0     0.499577     0.624270     0.200689    Uiso  ? Zr
   Zr3        1.0     0.999577     0.124270     0.200689    Uiso  ? Zr
   Zr4        1.0     0.999577     0.624270     0.200689    Uiso  ? Zr
   Zr5        1.0     0.501911     0.122835     0.608162    Uiso  ? Zr
   Zr6        1.0     0.501911     0.622835     0.608162    Uiso  ? Zr
   Zr7        1.0     0.001911     0.122835     0.608162    Uiso  ? Zr
   Zr8        1.0     0.001911     0.622835     0.608162    Uiso  ? Zr
   Zr9        1.0     0.497067     0.369847     0.997838    Uiso  ? Zr
   Zr10       1.0     0.497067     0.869847     0.997838    Uiso  ? Zr
   Zr11       1.0     0.997067     0.369847     0.997838    Uiso  ? Zr
   Zr12       1.0     0.997067     0.869847     0.997838    Uiso  ? Zr
   Zr13       1.0     0.498827     0.374583     0.404616    Uiso  ? Zr
   Zr14       1.0     0.498827     0.874583     0.404616    Uiso  ? Zr
   Zr15       1.0     0.998827     0.374583     0.404616    Uiso  ? Zr
   Zr16       1.0     0.998827     0.874583     0.404616    Uiso  ? Zr
   Zr17       1.0     0.500015     0.374597     0.200297    Uiso  ? Zr
   Zr18       1.0     0.500015     0.874597     0.200297    Uiso  ? Zr
   Zr19       1.0     0.000015     0.374597     0.200297    Uiso  ? Zr
   Zr20       1.0     0.000015     0.874597     0.200297    Uiso  ? Zr
   Zr21       1.0     0.502362     0.372841     0.608009    Uiso  ? Zr
   Zr22       1.0     0.502362     0.872841     0.608009    Uiso  ? Zr
   Zr23       1.0     0.002362     0.372841     0.608009    Uiso  ? Zr
   Zr24       1.0     0.002362     0.872841     0.608009    Uiso  ? Zr
   Zr25       1.0     0.503891     0.126702     0.999336    Uiso  ? Zr
   Zr26       1.0     0.503891     0.626702     0.999336    Uiso  ? Zr
   Zr27       1.0     0.003891     0.126702     0.999336    Uiso  ? Zr
   Zr28       1.0     0.003891     0.626702     0.999336    Uiso  ? Zr
   Zr29       1.0     0.500494     0.125879     0.404808    Uiso  ? Zr
   Zr30       1.0     0.500494     0.625879     0.404808    Uiso  ? Zr
   Zr31       1.0     0.000494     0.125879     0.404808    Uiso  ? Zr
   Zr32       1.0     0.000494     0.625879     0.404808    Uiso  ? Zr
   Zr33       1.0     0.247067     0.119847     0.997838    Uiso  ? Zr
   Zr34       1.0     0.247067     0.619847     0.997838    Uiso  ? Zr
   Zr35       1.0     0.747067     0.119847     0.997838    Uiso  ? Zr
   Zr36       1.0     0.747067     0.619847     0.997838    Uiso  ? Zr
   Zr37       1.0     0.248827     0.124583     0.404616    Uiso  ? Zr
   Zr38       1.0     0.248827     0.624583     0.404616    Uiso  ? Zr
   Zr39       1.0     0.748827     0.124583     0.404616    Uiso  ? Zr
   Zr40       1.0     0.748827     0.624583     0.404616    Uiso  ? Zr
   Zr41       1.0     0.249577     0.374270     0.200689    Uiso  ? Zr
   Zr42       1.0     0.249577     0.874270     0.200689    Uiso  ? Zr
   Zr43       1.0     0.749577     0.374270     0.200689    Uiso  ? Zr
   Zr44       1.0     0.749577     0.874270     0.200689    Uiso  ? Zr
   Zr45       1.0     0.251911     0.372835     0.608162    Uiso  ? Zr
   Zr46       1.0     0.251911     0.872835     0.608162    Uiso  ? Zr
   Zr47       1.0     0.751911     0.372835     0.608162    Uiso  ? Zr
   Zr48       1.0     0.751911     0.872835     0.608162    Uiso  ? Zr
   Zr49       1.0     0.250015     0.124597     0.200297    Uiso  ? Zr
   Zr50       1.0     0.250015     0.624597     0.200297    Uiso  ? Zr
   Zr51       1.0     0.750015     0.124597     0.200297    Uiso  ? Zr
   Zr52       1.0     0.750015     0.624597     0.200297    Uiso  ? Zr
   Zr53       1.0     0.252362     0.122841     0.608009    Uiso  ? Zr
   Zr54       1.0     0.252362     0.622841     0.608009    Uiso  ? Zr
   Zr55       1.0     0.752362     0.122841     0.608009    Uiso  ? Zr
   Zr56       1.0     0.752362     0.622841     0.608009    Uiso  ? Zr
   Zr57       1.0     0.253891     0.376702     0.999336    Uiso  ? Zr
   Zr58       1.0     0.253891     0.876702     0.999336    Uiso  ? Zr
   Zr59       1.0     0.753891     0.376702     0.999336    Uiso  ? Zr
   Zr60       1.0     0.753891     0.876702     0.999336    Uiso  ? Zr
   Zr61       1.0     0.250494     0.375879     0.404808    Uiso  ? Zr
   Zr62       1.0     0.250494     0.875879     0.404808    Uiso  ? Zr
   Zr63       1.0     0.750494     0.375879     0.404808    Uiso  ? Zr
   Zr64       1.0     0.750494     0.875879     0.404808    Uiso  ? Zr
   O1         1.0     0.244461     0.101992     0.305053    Uiso  ? O
   O2         1.0     0.244461     0.601992     0.305053    Uiso  ? O
   O3         1.0     0.744461     0.101992     0.305053    Uiso  ? O
   O4         1.0     0.744461     0.601992     0.305053    Uiso  ? O
   O5         1.0     0.239630     0.355649     0.101596    Uiso  ? O
   O6         1.0     0.239630     0.855649     0.101596    Uiso  ? O
   O7         1.0     0.739630     0.355649     0.101596    Uiso  ? O
   O8         1.0     0.739630     0.855649     0.101596    Uiso  ? O
   O9         1.0     0.246686     0.355593     0.508279    Uiso  ? O
   O10        1.0     0.246686     0.855593     0.508279    Uiso  ? O
   O11        1.0     0.746686     0.355593     0.508279    Uiso  ? O
   O12        1.0     0.746686     0.855593     0.508279    Uiso  ? O
   O13        1.0     0.251031     0.247831     0.610231    Uiso  ? O
   O14        1.0     0.251031     0.747831     0.610231    Uiso  ? O
   O15        1.0     0.751031     0.247831     0.610231    Uiso  ? O
   O16        1.0     0.751031     0.747831     0.610231    Uiso  ? O
   O17        1.0     0.242606     0.246726     0.219106    Uiso  ? O
   O18        1.0     0.242606     0.746726     0.219106    Uiso  ? O
   O19        1.0     0.742606     0.246726     0.219106    Uiso  ? O
   O20        1.0     0.742606     0.746726     0.219106    Uiso  ? O
   O21        1.0     0.249137     0.497430     0.027227    Uiso  ? O
   O22        1.0     0.249137     0.997430     0.027227    Uiso  ? O
   O23        1.0     0.749137     0.497430     0.027227    Uiso  ? O
   O24        1.0     0.749137     0.997430     0.027227    Uiso  ? O
   O25        1.0     0.238796     0.497460     0.422082    Uiso  ? O
   O26        1.0     0.238796     0.997460     0.422082    Uiso  ? O
   O27        1.0     0.738796     0.497460     0.422082    Uiso  ? O
   O28        1.0     0.738796     0.997460     0.422082    Uiso  ? O
   O29        1.0     0.494461     0.351992     0.305053    Uiso  ? O
   O30        1.0     0.494461     0.851992     0.305053    Uiso  ? O
   O31        1.0     0.994461     0.351992     0.305053    Uiso  ? O
   O32        1.0     0.994461     0.851992     0.305053    Uiso  ? O
   O33        1.0     0.489630     0.105649     0.101596    Uiso  ? O
   O34        1.0     0.489630     0.605649     0.101596    Uiso  ? O
   O35        1.0     0.989630     0.105649     0.101596    Uiso  ? O
   O36        1.0     0.989630     0.605649     0.101596    Uiso  ? O
   O37        1.0     0.496686     0.105593     0.508279    Uiso  ? O
   O38        1.0     0.496686     0.605593     0.508279    Uiso  ? O
   O39        1.0     0.996686     0.105593     0.508279    Uiso  ? O
   O40        1.0     0.996686     0.605593     0.508279    Uiso  ? O
   O41        1.0     0.499137     0.247430     0.027227    Uiso  ? O
   O42        1.0     0.499137     0.747430     0.027227    Uiso  ? O
   O43        1.0     0.999137     0.247430     0.027227    Uiso  ? O
   O44        1.0     0.999137     0.747430     0.027227    Uiso  ? O
   O45        1.0     0.488796     0.247460     0.422082    Uiso  ? O
   O46        1.0     0.488796     0.747460     0.422082    Uiso  ? O
   O47        1.0     0.988796     0.247460     0.422082    Uiso  ? O
   O48        1.0     0.988796     0.747460     0.422082    Uiso  ? O
   O49        1.0     0.501031     0.497831     0.610231    Uiso  ? O
   O50        1.0     0.501031     0.997831     0.610231    Uiso  ? O
   O51        1.0     0.001031     0.497831     0.610231    Uiso  ? O
   O52        1.0     0.001031     0.997831     0.610231    Uiso  ? O
   O53        1.0     0.492606     0.496726     0.219106    Uiso  ? O
   O54        1.0     0.492606     0.996726     0.219106    Uiso  ? O
   O55        1.0     0.992606     0.496726     0.219106    Uiso  ? O
   O56        1.0     0.992606     0.996726     0.219106    Uiso  ? O
   O57        1.0     0.268185     0.133294     0.101276    Uiso  ? O
   O58        1.0     0.268185     0.633294     0.101276    Uiso  ? O
   O59        1.0     0.768185     0.133294     0.101276    Uiso  ? O
   O60        1.0     0.768185     0.633294     0.101276    Uiso  ? O
   O61        1.0     0.270337     0.129956     0.508127    Uiso  ? O
   O62        1.0     0.270337     0.629956     0.508127    Uiso  ? O
   O63        1.0     0.770337     0.129956     0.508127    Uiso  ? O
   O64        1.0     0.770337     0.629956     0.508127    Uiso  ? O
   O65        1.0     0.272403     0.380331     0.305059    Uiso  ? O
   O66        1.0     0.272403     0.880331     0.305059    Uiso  ? O
   O67        1.0     0.772403     0.380331     0.305059    Uiso  ? O
   O68        1.0     0.772403     0.880331     0.305059    Uiso  ? O
   O69        1.0     0.254317     0.247300     0.998874    Uiso  ? O
   O70        1.0     0.254317     0.747300     0.998874    Uiso  ? O
   O71        1.0     0.754317     0.247300     0.998874    Uiso  ? O
   O72        1.0     0.754317     0.747300     0.998874    Uiso  ? O
   O73        1.0     0.276318     0.247253     0.402063    Uiso  ? O
   O74        1.0     0.276318     0.747253     0.402063    Uiso  ? O
   O75        1.0     0.776318     0.247253     0.402063    Uiso  ? O
   O76        1.0     0.776318     0.747253     0.402063    Uiso  ? O
   O77        1.0     0.274336     0.496543     0.196018    Uiso  ? O
   O78        1.0     0.274336     0.996543     0.196018    Uiso  ? O
   O79        1.0     0.774336     0.496543     0.196018    Uiso  ? O
   O80        1.0     0.774336     0.996543     0.196018    Uiso  ? O
   O81        1.0     0.258619     0.497953     0.604231    Uiso  ? O
   O82        1.0     0.258619     0.997953     0.604231    Uiso  ? O
   O83        1.0     0.758619     0.497953     0.604231    Uiso  ? O
   O84        1.0     0.758619     0.997953     0.604231    Uiso  ? O
   O85        1.0     0.022403     0.130331     0.305059    Uiso  ? O
   O86        1.0     0.022403     0.630331     0.305059    Uiso  ? O
   O87        1.0     0.522403     0.130331     0.305059    Uiso  ? O
   O88        1.0     0.522403     0.630331     0.305059    Uiso  ? O
   O89        1.0     0.018185     0.383294     0.101276    Uiso  ? O
   O90        1.0     0.018185     0.883294     0.101276    Uiso  ? O
   O91        1.0     0.518185     0.383294     0.101276    Uiso  ? O
   O92        1.0     0.518185     0.883294     0.101276    Uiso  ? O
   O93        1.0     0.020337     0.379956     0.508127    Uiso  ? O
   O94        1.0     0.020337     0.879956     0.508127    Uiso  ? O
   O95        1.0     0.520337     0.379956     0.508127    Uiso  ? O
   O96        1.0     0.520337     0.879956     0.508127    Uiso  ? O
   O97        1.0     0.004317     0.497300     0.998874    Uiso  ? O
   O98        1.0     0.004317     0.997300     0.998874    Uiso  ? O
   O99        1.0     0.504317     0.497300     0.998874    Uiso  ? O
   O100       1.0     0.504317     0.997300     0.998874    Uiso  ? O
   O101       1.0     0.026318     0.497253     0.402063    Uiso  ? O
   O102       1.0     0.026318     0.997253     0.402063    Uiso  ? O
   O103       1.0     0.526318     0.497253     0.402063    Uiso  ? O
   O104       1.0     0.526318     0.997253     0.402063    Uiso  ? O
   O105       1.0     0.024336     0.246543     0.196018    Uiso  ? O
   O106       1.0     0.024336     0.746543     0.196018    Uiso  ? O
   O107       1.0     0.524336     0.246543     0.196018    Uiso  ? O
   O108       1.0     0.524336     0.746543     0.196018    Uiso  ? O
   O109       1.0     0.008619     0.247953     0.604231    Uiso  ? O
   O110       1.0     0.008619     0.747953     0.604231    Uiso  ? O
   O111       1.0     0.508619     0.247953     0.604231    Uiso  ? O
   O112       1.0     0.508619     0.747953     0.604231    Uiso  ? O
   O113       1.0     0.378033     0.130005     0.611052    Uiso  ? O
   O114       1.0     0.378033     0.630005     0.611052    Uiso  ? O
   O115       1.0     0.878033     0.130005     0.611052    Uiso  ? O
   O116       1.0     0.878033     0.630005     0.611052    Uiso  ? O
   O117       1.0     0.377500     0.132043     0.219020    Uiso  ? O
   O118       1.0     0.377500     0.632043     0.219020    Uiso  ? O
   O119       1.0     0.877500     0.132043     0.219020    Uiso  ? O
   O120       1.0     0.877500     0.632043     0.219020    Uiso  ? O
   O121       1.0     0.375934     0.374437     0.027337    Uiso  ? O
   O122       1.0     0.375934     0.874437     0.027337    Uiso  ? O
   O123       1.0     0.875934     0.374437     0.027337    Uiso  ? O
   O124       1.0     0.875934     0.874437     0.027337    Uiso  ? O
   O125       1.0     0.377790     0.388052     0.420937    Uiso  ? O
   O126       1.0     0.377790     0.888052     0.420937    Uiso  ? O
   O127       1.0     0.877790     0.388052     0.420937    Uiso  ? O
   O128       1.0     0.877790     0.888052     0.420937    Uiso  ? O
   O129       1.0     0.377638     0.349803     0.195914    Uiso  ? O
   O130       1.0     0.377638     0.849803     0.195914    Uiso  ? O
   O131       1.0     0.877638     0.349803     0.195914    Uiso  ? O
   O132       1.0     0.877638     0.849803     0.195914    Uiso  ? O
   O133       1.0     0.377949     0.367089     0.604873    Uiso  ? O
   O134       1.0     0.377949     0.867089     0.604873    Uiso  ? O
   O135       1.0     0.877949     0.367089     0.604873    Uiso  ? O
   O136       1.0     0.877949     0.867089     0.604873    Uiso  ? O
   O137       1.0     0.375950     0.116782     0.998176    Uiso  ? O
   O138       1.0     0.375950     0.616782     0.998176    Uiso  ? O
   O139       1.0     0.875950     0.116782     0.998176    Uiso  ? O
   O140       1.0     0.875950     0.616782     0.998176    Uiso  ? O
   O141       1.0     0.377965     0.098938     0.401846    Uiso  ? O
   O142       1.0     0.377965     0.598938     0.401846    Uiso  ? O
   O143       1.0     0.877965     0.098938     0.401846    Uiso  ? O
   O144       1.0     0.877965     0.598938     0.401846    Uiso  ? O
   O145       1.0     0.125934     0.124437     0.027337    Uiso  ? O
   O146       1.0     0.125934     0.624437     0.027337    Uiso  ? O
   O147       1.0     0.625934     0.124437     0.027337    Uiso  ? O
   O148       1.0     0.625934     0.624437     0.027337    Uiso  ? O
   O149       1.0     0.127790     0.138052     0.420937    Uiso  ? O
   O150       1.0     0.127790     0.638052     0.420937    Uiso  ? O
   O151       1.0     0.627790     0.138052     0.420937    Uiso  ? O
   O152       1.0     0.627790     0.638052     0.420937    Uiso  ? O
   O153       1.0     0.128033     0.380005     0.611052    Uiso  ? O
   O154       1.0     0.128033     0.880005     0.611052    Uiso  ? O
   O155       1.0     0.628033     0.380005     0.611052    Uiso  ? O
   O156       1.0     0.628033     0.880005     0.611052    Uiso  ? O
   O157       1.0     0.127500     0.382043     0.219020    Uiso  ? O
   O158       1.0     0.127500     0.882043     0.219020    Uiso  ? O
   O159       1.0     0.627500     0.382043     0.219020    Uiso  ? O
   O160       1.0     0.627500     0.882043     0.219020    Uiso  ? O
   O161       1.0     0.127638     0.099803     0.195914    Uiso  ? O
   O162       1.0     0.127638     0.599803     0.195914    Uiso  ? O
   O163       1.0     0.627638     0.099803     0.195914    Uiso  ? O
   O164       1.0     0.627638     0.599803     0.195914    Uiso  ? O
   O165       1.0     0.127949     0.117089     0.604873    Uiso  ? O
   O166       1.0     0.127949     0.617089     0.604873    Uiso  ? O
   O167       1.0     0.627949     0.117089     0.604873    Uiso  ? O
   O168       1.0     0.627949     0.617089     0.604873    Uiso  ? O
   O169       1.0     0.125950     0.366782     0.998176    Uiso  ? O
   O170       1.0     0.125950     0.866782     0.998176    Uiso  ? O
   O171       1.0     0.625950     0.366782     0.998176    Uiso  ? O
   O172       1.0     0.625950     0.866782     0.998176    Uiso  ? O
   O173       1.0     0.127965     0.348938     0.401846    Uiso  ? O
   O174       1.0     0.127965     0.848938     0.401846    Uiso  ? O
   O175       1.0     0.627965     0.348938     0.401846    Uiso  ? O
   O176       1.0     0.627965     0.848938     0.401846    Uiso  ? O
   Pt1        1.0     0.989949     0.994749     0.711943    Uiso  ? Pt
   Pt2        1.0     0.007245     0.245709     0.710923    Uiso  ? Pt
   Pt3        1.0     0.989949     0.494749     0.711943    Uiso  ? Pt
   Pt4        1.0     0.007245     0.745709     0.710923    Uiso  ? Pt
   Pt5        1.0     0.257245     0.995709     0.710923    Uiso  ? Pt
   Pt6        1.0     0.239949     0.244749     0.711943    Uiso  ? Pt
   Pt7        1.0     0.257245     0.495709     0.710923    Uiso  ? Pt
   Pt8        1.0     0.239949     0.744749     0.711943    Uiso  ? Pt
   Pt9        1.0     0.489949     0.994749     0.711943    Uiso  ? Pt
   Pt10       1.0     0.507245     0.245709     0.710923    Uiso  ? Pt
   Pt11       1.0     0.489949     0.494749     0.711943    Uiso  ? Pt
   Pt12       1.0     0.507245     0.745709     0.710923    Uiso  ? Pt
   Pt13       1.0     0.757245     0.995709     0.710923    Uiso  ? Pt
   Pt14       1.0     0.739949     0.244749     0.711943    Uiso  ? Pt
   Pt15       1.0     0.757245     0.495709     0.710923    Uiso  ? Pt
   Pt16       1.0     0.739949     0.744749     0.711943    Uiso  ? Pt
   Pt17       1.0     0.015329     0.001625     0.896505    Uiso  ? Pt
   Pt18       1.0     0.998636     0.251697     0.888410    Uiso  ? Pt
   Pt19       1.0     0.015329     0.501625     0.896505    Uiso  ? Pt
   Pt20       1.0     0.998636     0.751697     0.888410    Uiso  ? Pt
   Pt21       1.0     0.248636     0.001697     0.888410    Uiso  ? Pt
   Pt22       1.0     0.265329     0.251625     0.896505    Uiso  ? Pt
   Pt23       1.0     0.248636     0.501697     0.888410    Uiso  ? Pt
   Pt24       1.0     0.265329     0.751625     0.896505    Uiso  ? Pt
   Pt25       1.0     0.515329     0.001625     0.896505    Uiso  ? Pt
   Pt26       1.0     0.498636     0.251697     0.888410    Uiso  ? Pt
   Pt27       1.0     0.515329     0.501625     0.896505    Uiso  ? Pt
   Pt28       1.0     0.498636     0.751697     0.888410    Uiso  ? Pt
   Pt29       1.0     0.748636     0.001697     0.888410    Uiso  ? Pt
   Pt30       1.0     0.765329     0.251625     0.896505    Uiso  ? Pt
   Pt31       1.0     0.748636     0.501697     0.888410    Uiso  ? Pt
   Pt32       1.0     0.765329     0.751625     0.896505    Uiso  ? Pt
   Pt33       1.0     0.002284     0.122318     0.802932    Uiso  ? Pt
   Pt34       1.0     0.004994     0.375500     0.802803    Uiso  ? Pt
   Pt35       1.0     0.002284     0.622318     0.802932    Uiso  ? Pt
   Pt36       1.0     0.004994     0.875500     0.802803    Uiso  ? Pt
   Pt37       1.0     0.254994     0.125500     0.802803    Uiso  ? Pt
   Pt38       1.0     0.252284     0.372318     0.802932    Uiso  ? Pt
   Pt39       1.0     0.254994     0.625500     0.802803    Uiso  ? Pt
   Pt40       1.0     0.252284     0.872318     0.802932    Uiso  ? Pt
   Pt41       1.0     0.502284     0.122318     0.802932    Uiso  ? Pt
   Pt42       1.0     0.504994     0.375500     0.802803    Uiso  ? Pt
   Pt43       1.0     0.502284     0.622318     0.802932    Uiso  ? Pt
   Pt44       1.0     0.504994     0.875500     0.802803    Uiso  ? Pt
   Pt45       1.0     0.754994     0.125500     0.802803    Uiso  ? Pt
   Pt46       1.0     0.752284     0.372318     0.802932    Uiso  ? Pt
   Pt47       1.0     0.754994     0.625500     0.802803    Uiso  ? Pt
   Pt48       1.0     0.752284     0.872318     0.802932    Uiso  ? Pt
   Pt49       1.0     0.125333     0.994713     0.795291    Uiso  ? Pt
   Pt50       1.0     0.129960     0.250186     0.809434    Uiso  ? Pt
   Pt51       1.0     0.125333     0.494713     0.795291    Uiso  ? Pt
   Pt52       1.0     0.129960     0.750186     0.809434    Uiso  ? Pt
   Pt53       1.0     0.379960     0.000186     0.809434    Uiso  ? Pt
   Pt54       1.0     0.375333     0.244713     0.795291    Uiso  ? Pt
   Pt55       1.0     0.379960     0.500186     0.809434    Uiso  ? Pt
   Pt56       1.0     0.375333     0.744713     0.795291    Uiso  ? Pt
   Pt57       1.0     0.625333     0.994713     0.795291    Uiso  ? Pt
   Pt58       1.0     0.629960     0.250186     0.809434    Uiso  ? Pt
   Pt59       1.0     0.625333     0.494713     0.795291    Uiso  ? Pt
   Pt60       1.0     0.629960     0.750186     0.809434    Uiso  ? Pt
   Pt61       1.0     0.879960     0.000186     0.809434    Uiso  ? Pt
   Pt62       1.0     0.875333     0.244713     0.795291    Uiso  ? Pt
   Pt63       1.0     0.879960     0.500186     0.809434    Uiso  ? Pt
   Pt64       1.0     0.875333     0.744713     0.795291    Uiso  ? Pt
   Pt65       1.0     0.124741     0.125016     0.711231    Uiso  ? Pt
   Pt66       1.0     0.124737     0.362028     0.712396    Uiso  ? Pt
   Pt67       1.0     0.124741     0.625016     0.711231    Uiso  ? Pt
   Pt68       1.0     0.124737     0.862028     0.712396    Uiso  ? Pt
   Pt69       1.0     0.374737     0.112028     0.712396    Uiso  ? Pt
   Pt70       1.0     0.374741     0.375016     0.711231    Uiso  ? Pt
   Pt71       1.0     0.374737     0.612028     0.712396    Uiso  ? Pt
   Pt72       1.0     0.374741     0.875016     0.711231    Uiso  ? Pt
   Pt73       1.0     0.624741     0.125016     0.711231    Uiso  ? Pt
   Pt74       1.0     0.624737     0.362028     0.712396    Uiso  ? Pt
   Pt75       1.0     0.624741     0.625016     0.711231    Uiso  ? Pt
   Pt76       1.0     0.624737     0.862028     0.712396    Uiso  ? Pt
   Pt77       1.0     0.874737     0.112028     0.712396    Uiso  ? Pt
   Pt78       1.0     0.874741     0.375016     0.711231    Uiso  ? Pt
   Pt79       1.0     0.874737     0.612028     0.712396    Uiso  ? Pt
   Pt80       1.0     0.874741     0.875016     0.711231    Uiso  ? Pt
   Pt81       1.0     0.131608     0.118608     0.888106    Uiso  ? Pt
   Pt82       1.0     0.131559     0.384490     0.896101    Uiso  ? Pt
   Pt83       1.0     0.131608     0.618608     0.888106    Uiso  ? Pt
   Pt84       1.0     0.131559     0.884490     0.896101    Uiso  ? Pt
   Pt85       1.0     0.381559     0.134490     0.896101    Uiso  ? Pt
   Pt86       1.0     0.381608     0.368608     0.888106    Uiso  ? Pt
   Pt87       1.0     0.381559     0.634490     0.896101    Uiso  ? Pt
   Pt88       1.0     0.381608     0.868608     0.888106    Uiso  ? Pt
   Pt89       1.0     0.631608     0.118608     0.888106    Uiso  ? Pt
   Pt90       1.0     0.631559     0.384490     0.896101    Uiso  ? Pt
   Pt91       1.0     0.631608     0.618608     0.888106    Uiso  ? Pt
   Pt92       1.0     0.631559     0.884490     0.896101    Uiso  ? Pt
   Pt93       1.0     0.881559     0.134490     0.896101    Uiso  ? Pt
   Pt94       1.0     0.881608     0.368608     0.888106    Uiso  ? Pt
   Pt95       1.0     0.881559     0.634490     0.896101    Uiso  ? Pt
   Pt96       1.0     0.881608     0.868608     0.888106    Uiso  ? Pt
